<nodes>
  <!-- 4 rows, 5 columns = 20 junctions -->
  <node id="n0"  x="0"   y="0"   type="traffic_light"/>
  <node id="n1"  x="100" y="0"   type="traffic_light"/>
  <node id="n2"  x="200" y="0"   type="traffic_light"/>
  <node id="n3"  x="300" y="0"   type="traffic_light"/>
  <node id="n4"  x="400" y="0"   type="traffic_light"/>

  <node id="n5"  x="0"   y="100" type="traffic_light"/>
  <node id="n6"  x="100" y="100" type="traffic_light"/>
  <node id="n7"  x="200" y="100" type="traffic_light"/>
  <node id="n8"  x="300" y="100" type="traffic_light"/>
  <node id="n9"  x="400" y="100" type="traffic_light"/>

  <node id="n10" x="0"   y="200" type="traffic_light"/>
  <node id="n11" x="100" y="200" type="traffic_light"/>
  <node id="n12" x="200" y="200" type="traffic_light"/>
  <node id="n13" x="300" y="200" type="traffic_light"/>
  <node id="n14" x="400" y="200" type="traffic_light"/>

  <node id="n15" x="0"   y="300" type="traffic_light"/>
  <node id="n16" x="100" y="300" type="traffic_light"/>
  <node id="n17" x="200" y="300" type="traffic_light"/>
  <node id="n18" x="300" y="300" type="traffic_light"/>
  <node id="n19" x="400" y="300" type="traffic_light"/>
</nodes>
