<additional>
    <tlLogic id="E3" type="actuated" programID="adaptive_1" offset="0">
        <!-- Pha đèn ban đầu (sẽ được cập nhật động bởi TraCI) -->
        <phase duration="42" state="GGGgrrrrGGGgrrrr"/>
        <phase duration="3" state="yyyyrrrryyyyrrrr"/>
        <phase duration="42" state="rrrrGGGgrrrrGGGg"/>
        <phase duration="3" state="rrrryyyyrrrryyyy"/>
        
        <!-- Các tham số cho đèn giao thông thích ứng -->
        <param key="detector-gap" value="2.0"/>
        <param key="show-detectors" value="true"/>
        <param key="file" value="tls_state.xml"/>
        <param key="freq" value="300"/>
    </tlLogic>
</additional>