<?xml version="1.0" encoding="UTF-8"?>

<!-- generated on 2025-06-24 16:04:28 by Eclipse SUMO netedit Version 1.22.0
-->

<additional xmlns:xsi="http://www.w3.org/2001/XMLSchema-instance" xsi:noNamespaceSchemaLocation="http://sumo.dlr.de/xsd/additional_file.xsd">
    <!-- Detectors -->
    <laneAreaDetector id="E1-3-1" lane="E1-3_0" pos="437.74" length="15.00" period="300.00" file="e2_0.xml"/>
    <laneAreaDetector id="E1-3-2" lane="E1-3_1" pos="438.61" length="15.00" period="300.00" file="e2_0.xml"/>
    <laneAreaDetector id="E3-2-1" lane="E3-2_0" pos="478.04" length="10.00" period="300.00" file="e2_4.xml"/>
    <laneAreaDetector id="E3-2-2" lane="E3-2_1" pos="473.32" length="10.00" period="300.00" file="e2_3.xml"/>
    <laneAreaDetector id="E3-4-1" lane="E3-4_0" pos="467.41" length="10.00" period="300.00" file="e2_5.xml"/>
    <laneAreaDetector id="E3-4-2" lane="E3-4_1" pos="474.56" length="10.00" period="300.00" file="e2_6.xml"/>
    <laneAreaDetector id="E5-3-1" lane="E5-3_0" pos="464.81" length="10.00" period="300.00" file="e2_1.xml"/>
    <laneAreaDetector id="E5-3-2" lane="E5-3_1" pos="472.27" length="10.00" period="300.00" file="e2_2.xml"/>
    
</additional>
