<?xml version="1.0" encoding="UTF-8"?>

<!-- generated on 2025-06-23 13:33:43 by Eclipse SUMO sumo Version 1.22.0
-->

<sumoConfiguration xmlns:xsi="http://www.w3.org/2001/XMLSchema-instance" xsi:noNamespaceSchemaLocation="http://sumo.dlr.de/xsd/sumoConfiguration.xsd">

    <input>
        <net-file value="dataset.net.xml"/>
        <route-files value="dataset.rou.xml"/>
    </input>

    <processing>
        <lateral-resolution value="0.05"/>
    </processing>

</sumoConfiguration>
