<?xml version="1.0" encoding="UTF-8"?>

<!-- generated on 2025-06-27 16:38:18 by Eclipse SUMO netedit Version 1.22.0
<neteditConfiguration xmlns:xsi="http://www.w3.org/2001/XMLSchema-instance" xsi:noNamespaceSchemaLocation="http://sumo.dlr.de/xsd/neteditConfiguration.xsd">

    <input>
        <sumocfg-file value="C:\Users\Admin\Downloads\sumo test\New folder\20 node\20e.sumocfg"/>
        <additional-files value="C:\Users\Admin\Downloads\sumo test\New folder\20 node\20e.add.xml"/>
        <route-files value="C:\Users\Admin\Downloads\sumo test\New folder\20 node\20e.rou.xml"/>
        <sumo-net-file value="C:\Users\Admin\Downloads\sumo test\New folder\20 node\20e.net.xml"/>
    </input>

    <output>
        <output-file value="C:\Users\Admin\Downloads\sumo test\New folder\20 node\20e.net.xml"/>
    </output>

    <processing>
        <geometry.min-radius.fix.railways value="false"/>
        <geometry.max-grade.fix value="false"/>
        <offset.disable-normalization value="true"/>
        <lefthand value="0"/>
    </processing>

    <junctions>
        <no-turnarounds value="true"/>
        <junctions.corner-detail value="5"/>
        <junctions.limit-turn-speed value="5.50"/>
        <rectangular-lane-cut value="0"/>
    </junctions>

    <pedestrian>
        <walkingareas value="0"/>
    </pedestrian>

    <netedit>
        <new-network value="false"/>
    </netedit>

</neteditConfiguration>
-->

<net version="1.20" junctionCornerDetail="5" limitTurnSpeed="5.50" xmlns:xsi="http://www.w3.org/2001/XMLSchema-instance" xsi:noNamespaceSchemaLocation="http://sumo.dlr.de/xsd/net_file.xsd">

    <location netOffset="0.00,0.00" convBoundary="-251.47,-324.33,287.55,98.34" origBoundary="-10000000000.00,-10000000000.00,10000000000.00,10000000000.00" projParameter="!"/>

    <edge id=":J10_0" function="internal">
        <lane id=":J10_0_0" index="0" speed="8.60" length="19.47" shape="283.12,11.06 288.15,14.56 290.65,18.28 290.64,22.24 288.10,26.43"/>
        <lane id=":J10_0_1" index="1" speed="7.32" length="14.04" shape="281.60,13.88 285.29,16.43 287.12,19.11 287.08,21.92 285.19,24.87"/>
    </edge>
    <edge id=":J10_2" function="internal">
        <lane id=":J10_2_0" index="0" speed="3.75" length="2.87" shape="279.31,21.73 279.72,21.15 279.73,20.60 279.35,20.05 278.58,19.52"/>
        <lane id=":J10_2_1" index="1" speed="5.80" length="8.54" shape="282.27,23.31 283.47,21.57 283.51,19.90 282.38,18.27 280.09,16.70"/>
    </edge>
    <edge id=":J11_0" function="internal">
        <lane id=":J11_0_0" index="0" speed="9.21" length="12.56" shape="-144.11,-62.07 -146.53,-61.51 -148.78,-59.95 -150.87,-57.40 -152.79,-53.84"/>
    </edge>
    <edge id=":J11_1" function="internal">
        <lane id=":J11_1_0" index="0" speed="13.89" length="20.64" shape="-144.11,-62.07 -150.20,-62.05 -154.59,-62.41 -158.94,-63.21 -164.90,-64.54"/>
        <lane id=":J11_1_1" index="1" speed="13.89" length="20.64" shape="-144.19,-65.27 -150.16,-65.24 -154.29,-65.57 -158.37,-66.35 -164.21,-67.66"/>
    </edge>
    <edge id=":J11_3" function="internal">
        <lane id=":J11_3_0" index="0" speed="13.89" length="19.10" shape="-162.84,-73.91 -157.42,-72.69 -153.67,-71.95 -149.88,-71.64 -144.35,-71.67"/>
        <lane id=":J11_3_1" index="1" speed="13.89" length="19.10" shape="-163.53,-70.79 -157.88,-69.51 -153.98,-68.76 -150.03,-68.44 -144.27,-68.47"/>
    </edge>
    <edge id=":J11_5" function="internal">
        <lane id=":J11_5_0" index="0" speed="8.98" length="5.15" shape="-163.53,-70.79 -158.71,-68.98"/>
    </edge>
    <edge id=":J11_8" function="internal">
        <lane id=":J11_8_0" index="0" speed="8.98" length="15.90" shape="-158.71,-68.98 -157.95,-68.69 -154.79,-65.39 -154.04,-60.88 -155.70,-55.17"/>
    </edge>
    <edge id=":J11_6" function="internal">
        <lane id=":J11_6_0" index="0" speed="6.10" length="9.06" shape="-161.53,-57.81 -160.81,-60.27 -161.14,-62.21 -162.50,-63.63 -164.90,-64.54"/>
    </edge>
    <edge id=":J11_7" function="internal">
        <lane id=":J11_7_0" index="0" speed="11.43" length="19.72" shape="-158.62,-56.49 -155.72,-61.65 -152.36,-65.36 -148.54,-67.63 -144.27,-68.47"/>
    </edge>
    <edge id=":J12_0" function="internal">
        <lane id=":J12_0_0" index="0" speed="13.89" length="31.80" shape="-177.92,23.81 -185.34,22.28 -192.01,18.87 -197.93,13.60 -203.09,6.45"/>
        <lane id=":J12_0_1" index="1" speed="13.89" length="28.73" shape="-177.68,20.62 -184.32,19.23 -190.31,16.14 -195.65,11.33 -200.33,4.82"/>
    </edge>
    <edge id=":J12_2" function="internal">
        <lane id=":J12_2_0" index="0" speed="9.29" length="7.09" shape="-177.68,20.62 -183.93,19.05 -184.37,18.58"/>
    </edge>
    <edge id=":J12_8" function="internal">
        <lane id=":J12_8_0" index="0" speed="9.29" length="17.62" shape="-184.37,18.58 -187.30,15.51 -187.78,10.00 -185.39,2.53"/>
    </edge>
    <edge id=":J12_3" function="internal">
        <lane id=":J12_3_0" index="0" speed="6.53" length="11.54" shape="-179.56,5.17 -180.87,8.96 -180.92,11.73 -179.69,13.49 -177.19,14.24"/>
    </edge>
    <edge id=":J12_4" function="internal">
        <lane id=":J12_4_0" index="0" speed="8.82" length="25.60" shape="-182.47,3.85 -186.59,10.52 -190.94,12.91 -195.52,11.01 -200.33,4.82"/>
    </edge>
    <edge id=":J12_5" function="internal">
        <lane id=":J12_5_0" index="0" speed="5.59" length="9.35" shape="-194.83,1.56 -193.07,3.82 -191.40,4.51 -189.81,3.64 -188.30,1.21"/>
    </edge>
    <edge id=":J12_6" function="internal">
        <lane id=":J12_6_0" index="0" speed="13.51" length="22.59" shape="-194.83,1.56 -191.09,6.80 -186.91,10.66 -182.27,13.14 -177.19,14.24"/>
        <lane id=":J12_6_1" index="1" speed="13.89" length="25.66" shape="-197.58,3.19 -193.37,9.07 -188.61,13.40 -183.30,16.19 -177.43,17.43"/>
    </edge>
    <edge id=":J13_0" function="internal">
        <lane id=":J13_0_0" index="0" speed="13.89" length="28.39" shape="-8.26,43.78 -14.71,40.59 -20.92,37.90 -27.33,35.92 -34.36,34.83"/>
        <lane id=":J13_0_1" index="1" speed="13.89" length="28.39" shape="-6.82,40.92 -13.45,37.68 -20.08,34.88 -26.90,32.78 -34.11,31.64"/>
    </edge>
    <edge id=":J13_2" function="internal">
        <lane id=":J13_2_0" index="0" speed="13.89" length="6.87" shape="-6.82,40.92 -12.67,37.31"/>
    </edge>
    <edge id=":J13_3" function="internal">
        <lane id=":J13_3_0" index="0" speed="8.16" length="2.81" shape="-6.82,40.92 -8.95,39.08"/>
    </edge>
    <edge id=":J13_16" function="internal">
        <lane id=":J13_16_0" index="0" speed="13.89" length="23.97" shape="-12.67,37.31 -14.69,36.07 -20.27,30.59 -23.58,24.47 -24.62,17.73"/>
    </edge>
    <edge id=":J13_17" function="internal">
        <lane id=":J13_17_0" index="0" speed="8.16" length="20.73" shape="-8.95,39.08 -11.69,36.71 -13.06,31.56 -11.01,26.63 -5.62,23.11"/>
    </edge>
    <edge id=":J13_4" function="internal">
        <lane id=":J13_4_0" index="0" speed="5.48" length="9.70" shape="-3.53,29.16 -6.32,30.49 -7.32,31.94 -6.53,33.52 -3.94,35.21"/>
    </edge>
    <edge id=":J13_5" function="internal">
        <lane id=":J13_5_0" index="0" speed="13.89" length="30.88" shape="-3.53,29.16 -10.94,31.53 -18.75,33.50 -26.66,34.72 -34.36,34.83"/>
        <lane id=":J13_5_1" index="1" speed="13.89" length="30.88" shape="-4.58,26.14 -11.78,28.48 -19.15,30.40 -26.62,31.56 -34.11,31.64"/>
    </edge>
    <edge id=":J13_7" function="internal">
        <lane id=":J13_7_0" index="0" speed="9.71" length="27.06" shape="-4.58,26.14 -12.55,28.18 -18.94,27.94 -23.17,24.69 -24.62,17.73"/>
    </edge>
    <edge id=":J13_8" function="internal">
        <lane id=":J13_8_0" index="0" speed="7.12" length="13.95" shape="-18.22,17.82 -17.53,20.32 -15.38,21.53 -11.75,21.45 -6.66,20.09"/>
    </edge>
    <edge id=":J13_9" function="internal">
        <lane id=":J13_9_0" index="0" speed="12.51" length="23.68" shape="-18.22,17.82 -17.38,22.70 -14.72,27.23 -10.24,31.39 -3.94,35.21"/>
        <lane id=":J13_9_1" index="1" speed="13.39" length="27.26" shape="-21.42,17.78 -20.48,23.59 -17.50,28.91 -12.47,33.73 -5.38,38.07"/>
    </edge>
    <edge id=":J13_11" function="internal">
        <lane id=":J13_11_0" index="0" speed="9.56" length="21.69" shape="-21.42,17.78 -22.29,24.20 -24.70,28.65 -28.64,31.13 -34.11,31.64"/>
    </edge>
    <edge id=":J13_12" function="internal">
        <lane id=":J13_12_0" index="0" speed="6.95" length="10.93" shape="-33.62,25.26 -31.13,24.95 -29.33,23.58 -28.22,21.16 -27.82,17.68"/>
    </edge>
    <edge id=":J13_13" function="internal">
        <lane id=":J13_13_0" index="0" speed="13.89" length="28.29" shape="-33.62,25.26 -26.37,25.70 -19.43,25.69 -12.58,24.93 -5.62,23.11"/>
    </edge>
    <edge id=":J13_14" function="internal">
        <lane id=":J13_14_0" index="0" speed="13.89" length="30.86" shape="-33.62,25.26 -26.03,26.50 -18.39,28.83 -10.95,31.86 -3.94,35.21"/>
        <lane id=":J13_14_1" index="1" speed="13.89" length="30.86" shape="-33.87,28.45 -26.46,29.64 -19.23,31.86 -12.20,34.77 -5.38,38.07"/>
    </edge>
    <edge id=":J14_0" function="internal">
        <lane id=":J14_0_0" index="0" speed="13.89" length="21.05" shape="36.17,68.07 31.15,64.66 27.52,62.24 23.77,60.03 18.39,57.22"/>
        <lane id=":J14_0_1" index="1" speed="13.89" length="21.05" shape="37.96,65.42 32.88,61.97 29.13,59.49 25.27,57.21 19.84,54.36"/>
    </edge>
    <edge id=":J14_2" function="internal">
        <lane id=":J14_2_0" index="0" speed="8.83" length="5.31" shape="37.96,65.42 34.00,61.88"/>
    </edge>
    <edge id=":J14_8" function="internal">
        <lane id=":J14_8_0" index="0" speed="8.83" length="17.79" shape="34.00,61.88 32.90,60.89 31.26,56.42 33.04,52.01 38.24,47.64"/>
    </edge>
    <edge id=":J14_3" function="internal">
        <lane id=":J14_3_0" index="0" speed="5.79" length="9.15" shape="41.64,53.07 39.58,54.79 38.87,56.54 39.52,58.31 41.53,60.11"/>
    </edge>
    <edge id=":J14_4" function="internal">
        <lane id=":J14_4_0" index="0" speed="12.57" length="21.36" shape="39.94,50.36 33.99,53.55 28.66,55.28 23.94,55.55 19.84,54.36"/>
    </edge>
    <edge id=":J14_5" function="internal">
        <lane id=":J14_5_0" index="0" speed="10.53" length="14.82" shape="22.72,48.65 25.22,49.24 28.36,48.82 32.13,47.39 36.54,44.93"/>
    </edge>
    <edge id=":J14_6" function="internal">
        <lane id=":J14_6_0" index="0" speed="13.89" length="21.85" shape="22.72,48.65 28.26,51.55 32.36,53.97 36.34,56.60 41.53,60.11"/>
        <lane id=":J14_6_1" index="1" speed="13.89" length="21.85" shape="21.28,51.51 26.76,54.38 30.75,56.73 34.61,59.28 39.74,62.76"/>
    </edge>
    <edge id=":J15_0" function="internal">
        <lane id=":J15_0_0" index="0" speed="8.63" length="28.62" shape="170.94,-128.66 176.47,-123.33 177.53,-116.79 174.43,-110.93 167.48,-107.65"/>
        <lane id=":J15_0_1" index="1" speed="7.38" length="20.44" shape="169.46,-125.82 173.41,-122.01 174.17,-117.34 171.95,-113.15 166.99,-110.81"/>
    </edge>
    <edge id=":J15_2" function="internal">
        <lane id=":J15_2_0" index="0" speed="4.29" length="5.72" shape="166.02,-117.14 167.86,-117.61 168.56,-118.26 168.11,-119.11 166.51,-120.14"/>
        <lane id=":J15_2_1" index="1" speed="6.81" length="17.15" shape="166.50,-113.98 172.03,-115.38 174.12,-117.35 172.77,-119.88 167.98,-122.98"/>
    </edge>
    <edge id=":J16_0" function="internal">
        <lane id=":J16_0_0" index="0" speed="12.69" length="19.48" shape="113.59,-87.15 107.95,-91.47 103.26,-94.39 99.51,-95.90 96.70,-95.99"/>
    </edge>
    <edge id=":J16_1" function="internal">
        <lane id=":J16_1_0" index="0" speed="9.40" length="31.11" shape="113.59,-87.15 108.45,-93.97 108.03,-100.97 111.96,-106.77 119.87,-110.02"/>
        <lane id=":J16_1_1" index="1" speed="8.23" length="23.44" shape="115.63,-89.62 111.75,-94.76 111.44,-100.03 114.40,-104.41 120.36,-106.85"/>
    </edge>
    <edge id=":J16_3" function="internal">
        <lane id=":J16_3_0" index="0" speed="5.50" length="9.58" shape="121.33,-100.53 118.42,-99.72 117.18,-98.46 117.60,-96.74 119.70,-94.56"/>
        <lane id=":J16_3_1" index="1" speed="7.39" length="18.63" shape="120.84,-103.69 115.19,-102.12 112.77,-99.67 113.60,-96.32 117.66,-92.09"/>
    </edge>
    <edge id=":J16_5" function="internal">
        <lane id=":J16_5_0" index="0" speed="13.89" length="25.39" shape="120.84,-103.69 114.14,-102.68 108.29,-101.77 102.48,-100.66 95.89,-99.09"/>
    </edge>
    <edge id=":J16_6" function="internal">
        <lane id=":J16_6_0" index="0" speed="13.89" length="26.05" shape="94.27,-105.28 100.96,-106.87 106.99,-108.03 113.06,-108.99 119.87,-110.02"/>
    </edge>
    <edge id=":J16_7" function="internal">
        <lane id=":J16_7_0" index="0" speed="13.89" length="25.45" shape="95.08,-102.18 99.43,-102.32 104.64,-100.68 110.72,-97.27 117.66,-92.09"/>
    </edge>
    <edge id=":J17_0" function="internal">
        <lane id=":J17_0_0" index="0" speed="10.96" length="30.41" shape="12.03,-59.85 -0.69,-61.43 -9.78,-61.72 -15.25,-60.73 -17.11,-58.46"/>
    </edge>
    <edge id=":J17_1" function="internal">
        <lane id=":J17_1_0" index="0" speed="13.89" length="58.79" shape="12.03,-59.85 0.11,-61.24 -17.22,-62.81 -34.58,-64.06 -46.56,-64.46"/>
    </edge>
    <edge id=":J17_2" function="internal">
        <lane id=":J17_2_0" index="0" speed="13.89" length="60.69" shape="12.03,-59.85 0.08,-62.76 -17.20,-68.10 -34.21,-74.16 -45.34,-79.26"/>
        <lane id=":J17_2_1" index="1" speed="13.89" length="59.36" shape="12.51,-63.01 0.76,-65.85 -16.10,-71.03 -32.68,-76.93 -43.62,-81.95"/>
    </edge>
    <edge id=":J17_4" function="internal">
        <lane id=":J17_4_0" index="0" speed="11.66" length="16.71" shape="12.51,-63.01 -0.39,-66.11 -3.40,-67.77"/>
    </edge>
    <edge id=":J17_5" function="internal">
        <lane id=":J17_5_0" index="0" speed="7.57" length="2.77" shape="12.51,-63.01 10.08,-64.33"/>
    </edge>
    <edge id=":J17_37" function="internal">
        <lane id=":J17_37_0" index="0" speed="11.66" length="26.35" shape="-3.40,-67.77 -9.77,-71.28 -13.53,-78.75 -9.60,-88.72"/>
    </edge>
    <edge id=":J17_38" function="internal">
        <lane id=":J17_38_0" index="0" speed="7.57" length="21.01" shape="10.08,-64.33 7.06,-65.98 5.01,-71.27 6.49,-76.75 11.61,-80.28"/>
    </edge>
    <edge id=":J17_6" function="internal">
        <lane id=":J17_6_0" index="0" speed="5.71" length="12.66" shape="13.23,-74.09 8.99,-72.67 7.62,-71.41 9.12,-70.30 13.48,-69.34"/>
    </edge>
    <edge id=":J17_7" function="internal">
        <lane id=":J17_7_0" index="0" speed="13.83" length="35.28" shape="13.23,-74.09 0.00,-70.13 -9.47,-66.21 -15.17,-62.32 -17.11,-58.46"/>
    </edge>
    <edge id=":J17_8" function="internal">
        <lane id=":J17_8_0" index="0" speed="13.89" length="60.25" shape="13.23,-74.09 1.20,-72.04 -16.58,-70.01 -34.43,-68.41 -46.64,-67.66"/>
    </edge>
    <edge id=":J17_9" function="internal">
        <lane id=":J17_9_0" index="0" speed="13.89" length="60.45" shape="13.23,-74.09 -3.85,-70.89 -19.31,-70.68 -33.14,-73.47 -45.34,-79.26"/>
        <lane id=":J17_9_1" index="1" speed="13.89" length="57.81" shape="12.42,-77.18 -4.00,-74.09 -18.81,-73.86 -32.01,-76.48 -43.62,-81.95"/>
    </edge>
    <edge id=":J17_11" function="internal">
        <lane id=":J17_11_0" index="0" speed="9.30" length="33.00" shape="12.42,-77.18 2.18,-75.95 -6.71,-77.49 -11.53,-81.76 -9.60,-88.72"/>
    </edge>
    <edge id=":J17_12" function="internal">
        <lane id=":J17_12_0" index="0" speed="7.29" length="19.60" shape="-4.48,-84.88 -5.46,-82.21 -3.24,-81.07 2.18,-81.45 10.79,-83.37"/>
    </edge>
    <edge id=":J17_13" function="internal">
        <lane id=":J17_13_0" index="0" speed="9.72" length="29.48" shape="-4.48,-84.88 -6.59,-79.61 -4.30,-75.26 2.39,-71.83 13.48,-69.34"/>
    </edge>
    <edge id=":J17_14" function="internal">
        <lane id=":J17_14_0" index="0" speed="13.89" length="31.28" shape="-4.48,-84.88 -9.46,-78.79 -14.59,-72.44 -18.62,-65.72 -20.31,-58.50"/>
    </edge>
    <edge id=":J17_15" function="internal">
        <lane id=":J17_15_0" index="0" speed="13.89" length="48.43" shape="-4.48,-84.88 -12.67,-76.20 -22.41,-69.90 -33.71,-65.99 -46.56,-64.46"/>
        <lane id=":J17_15_1" index="1" speed="13.89" length="45.54" shape="-7.04,-86.80 -14.72,-78.66 -23.88,-72.76 -34.52,-69.09 -46.64,-67.66"/>
    </edge>
    <edge id=":J17_17" function="internal">
        <lane id=":J17_17_0" index="0" speed="13.74" length="11.07" shape="-7.04,-86.80 -14.69,-79.34 -15.05,-79.21"/>
    </edge>
    <edge id=":J17_39" function="internal">
        <lane id=":J17_39_0" index="0" speed="13.74" length="30.32" shape="-15.05,-79.21 -23.34,-76.05 -32.98,-76.92 -43.62,-81.95"/>
    </edge>
    <edge id=":J17_18" function="internal">
        <lane id=":J17_18_0" index="0" speed="12.06" length="31.62" shape="-40.17,-87.35 -31.95,-83.41 -24.54,-82.65 -17.94,-85.06 -12.16,-90.64"/>
    </edge>
    <edge id=":J17_19" function="internal">
        <lane id=":J17_19_0" index="0" speed="13.89" length="52.54" shape="-40.17,-87.35 -29.77,-82.49 -17.81,-80.20 -4.29,-80.50 10.79,-83.37"/>
        <lane id=":J17_19_1" index="1" speed="13.89" length="53.78" shape="-40.17,-87.35 -28.34,-81.41 -15.77,-78.26 -2.45,-77.88 11.61,-80.28"/>
    </edge>
    <edge id=":J17_21" function="internal">
        <lane id=":J17_21_0" index="0" speed="13.89" length="57.38" shape="-40.17,-87.35 -29.63,-82.47 -13.89,-76.89 2.11,-72.03 13.48,-69.34"/>
        <lane id=":J17_21_1" index="1" speed="13.89" length="57.38" shape="-41.90,-84.65 -31.16,-79.70 -15.00,-73.96 1.43,-68.94 13.00,-66.17"/>
    </edge>
    <edge id=":J17_23" function="internal">
        <lane id=":J17_23_0" index="0" speed="13.89" length="3.56" shape="-41.90,-84.65 -39.01,-82.57"/>
    </edge>
    <edge id=":J17_24" function="internal">
        <lane id=":J17_24_0" index="0" speed="7.85" length="1.78" shape="-41.90,-84.65 -40.74,-83.29"/>
    </edge>
    <edge id=":J17_40" function="internal">
        <lane id=":J17_40_0" index="0" speed="13.89" length="31.59" shape="-39.01,-82.57 -32.38,-77.80 -25.61,-71.16 -21.59,-64.73 -20.31,-58.50"/>
    </edge>
    <edge id=":J17_41" function="internal">
        <lane id=":J17_41_0" index="0" speed="7.85" length="22.03" shape="-40.74,-83.29 -37.78,-79.80 -37.50,-74.27 -40.60,-69.67 -46.64,-67.66"/>
    </edge>
    <edge id=":J17_25" function="internal">
        <lane id=":J17_25_0" index="0" speed="5.48" length="10.64" shape="-46.79,-74.06 -43.24,-74.47 -41.81,-75.47 -42.52,-77.07 -45.34,-79.26"/>
    </edge>
    <edge id=":J17_26" function="internal">
        <lane id=":J17_26_0" index="0" speed="13.89" length="39.76" shape="-46.79,-74.06 -36.15,-75.30 -26.83,-78.48 -18.83,-83.59 -12.16,-90.64"/>
        <lane id=":J17_26_1" index="1" speed="13.89" length="42.65" shape="-46.72,-70.86 -35.34,-72.20 -25.36,-75.62 -16.78,-81.13 -9.60,-88.72"/>
    </edge>
    <edge id=":J17_28" function="internal">
        <lane id=":J17_28_0" index="0" speed="13.89" length="59.12" shape="-46.72,-70.86 -34.75,-72.08 -17.43,-74.71 -0.18,-77.77 11.61,-80.28"/>
    </edge>
    <edge id=":J17_29" function="internal">
        <lane id=":J17_29_0" index="0" speed="13.89" length="59.92" shape="-46.72,-70.86 -34.56,-70.44 -16.82,-69.17 0.90,-67.58 13.00,-66.17"/>
    </edge>
    <edge id=":J17_30" function="internal">
        <lane id=":J17_30_0" index="0" speed="11.68" length="4.30" shape="-46.72,-70.86 -42.42,-70.66"/>
    </edge>
    <edge id=":J17_42" function="internal">
        <lane id=":J17_42_0" index="0" speed="11.68" length="28.09" shape="-42.42,-70.66 -35.09,-70.33 -26.81,-68.10 -21.89,-64.15 -20.31,-58.50"/>
    </edge>
    <edge id=":J17_31" function="internal">
        <lane id=":J17_31_0" index="0" speed="9.74" length="22.19" shape="-26.71,-58.60 -27.91,-61.35 -31.62,-63.24 -37.84,-64.28 -46.56,-64.46"/>
    </edge>
    <edge id=":J17_32" function="internal">
        <lane id=":J17_32_0" index="0" speed="13.89" length="28.71" shape="-26.71,-58.60 -27.82,-63.14 -31.30,-68.10 -37.14,-73.47 -45.34,-79.26"/>
    </edge>
    <edge id=":J17_33" function="internal">
        <lane id=":J17_33_0" index="0" speed="13.89" length="34.63" shape="-26.71,-58.60 -25.21,-66.70 -21.63,-75.37 -16.94,-83.67 -12.16,-90.64"/>
        <lane id=":J17_33_1" index="1" speed="13.89" length="34.63" shape="-23.51,-58.55 -22.11,-66.36 -18.75,-74.39 -14.28,-82.04 -9.60,-88.72"/>
    </edge>
    <edge id=":J17_35" function="internal">
        <lane id=":J17_35_0" index="0" speed="13.89" length="43.32" shape="-23.51,-58.55 -21.24,-64.62 -14.64,-70.26 -3.69,-75.48 11.61,-80.28"/>
    </edge>
    <edge id=":J17_36" function="internal">
        <lane id=":J17_36_0" index="0" speed="12.68" length="41.11" shape="-23.51,-58.55 -20.61,-64.81 -12.87,-67.65 -1.32,-67.85 13.00,-66.17"/>
    </edge>
    <edge id=":J18_0" function="internal">
        <lane id=":J18_0_0" index="0" speed="13.89" length="0.28" shape="-141.87,-140.94 -141.91,-140.96 -141.93,-140.98 -141.96,-140.99 -142.00,-141.01"/>
        <lane id=":J18_0_1" index="1" speed="13.89" length="0.28" shape="-140.15,-143.64 -140.26,-143.71 -140.33,-143.75 -140.41,-143.79 -140.52,-143.85"/>
    </edge>
    <edge id=":J18_2" function="internal">
        <lane id=":J18_2_0" index="0" speed="13.89" length="0.85" shape="-137.57,-149.53 -137.31,-149.39 -137.13,-149.29 -136.95,-149.19 -136.71,-149.03"/>
        <lane id=":J18_2_1" index="1" speed="13.89" length="0.85" shape="-139.04,-146.69 -138.86,-146.59 -138.73,-146.52 -138.61,-146.45 -138.43,-146.33"/>
    </edge>
    <edge id=":J19_0" function="internal">
        <lane id=":J19_0_0" index="0" speed="5.93" length="9.10" shape="-225.07,-184.22 -227.55,-185.09 -229.46,-184.84 -230.80,-183.46 -231.58,-180.96"/>
    </edge>
    <edge id=":J19_1" function="internal">
        <lane id=":J19_1_0" index="0" speed="9.95" length="21.24" shape="-223.60,-187.06 -228.88,-190.61 -232.01,-194.65 -232.98,-199.17 -231.80,-204.18"/>
    </edge>
    <edge id=":J19_2" function="internal">
        <lane id=":J19_2_0" index="0" speed="7.46" length="11.50" shape="-225.92,-201.65 -226.40,-199.20 -225.69,-196.90 -223.77,-194.75 -220.65,-192.74"/>
    </edge>
    <edge id=":J19_3" function="internal">
        <lane id=":J19_3_0" index="0" speed="13.89" length="21.93" shape="-225.92,-201.65 -228.25,-195.93 -229.63,-191.56 -230.58,-187.06 -231.58,-180.96"/>
        <lane id=":J19_3_1" index="1" speed="13.89" length="21.93" shape="-228.86,-202.92 -231.22,-197.08 -232.68,-192.45 -233.70,-187.69 -234.74,-181.47"/>
    </edge>
    <edge id=":J19_5" function="internal">
        <lane id=":J19_5_0" index="0" speed="13.89" length="23.49" shape="-241.06,-182.50 -239.95,-188.95 -238.78,-194.23 -237.17,-199.37 -234.74,-205.44"/>
        <lane id=":J19_5_1" index="1" speed="13.89" length="23.49" shape="-237.90,-181.98 -236.83,-188.32 -235.73,-193.34 -234.19,-198.22 -231.80,-204.18"/>
    </edge>
    <edge id=":J19_7" function="internal">
        <lane id=":J19_7_0" index="0" speed="8.88" length="5.20" shape="-237.90,-181.98 -236.35,-186.95"/>
    </edge>
    <edge id=":J19_8" function="internal">
        <lane id=":J19_8_0" index="0" speed="8.88" length="16.85" shape="-236.35,-186.95 -236.01,-188.05 -232.75,-191.40 -228.12,-192.01 -222.12,-189.90"/>
    </edge>
    <edge id=":J20_0" function="internal">
        <lane id=":J20_0_0" index="0" speed="3.91" length="2.52" shape="-204.17,-248.30 -204.84,-248.46 -205.41,-248.36 -205.87,-248.03 -206.23,-247.44"/>
        <lane id=":J20_0_1" index="1" speed="6.08" length="7.55" shape="-203.01,-251.28 -205.01,-251.75 -206.71,-251.48 -208.09,-250.46 -209.17,-248.70"/>
    </edge>
    <edge id=":J20_2" function="internal">
        <lane id=":J20_2_0" index="0" speed="8.97" length="17.62" shape="-215.04,-251.23 -212.54,-255.34 -209.31,-257.71 -205.36,-258.34 -200.68,-257.24"/>
        <lane id=":J20_2_1" index="1" speed="7.66" length="12.59" shape="-212.10,-249.97 -210.32,-252.90 -208.01,-254.59 -205.19,-255.05 -201.84,-254.26"/>
    </edge>
    <edge id=":J21_0" function="internal">
        <lane id=":J21_0_0" index="0" speed="13.89" length="22.19" shape="-138.58,-224.07 -144.63,-225.74 -149.25,-227.11 -153.80,-228.68 -159.67,-230.91"/>
    </edge>
    <edge id=":J21_1" function="internal">
        <lane id=":J21_1_0" index="0" speed="10.11" length="27.08" shape="-138.58,-224.07 -145.61,-227.11 -149.46,-231.55 -150.13,-237.39 -147.61,-244.63"/>
        <lane id=":J21_1_1" index="1" speed="8.98" length="21.07" shape="-137.74,-227.16 -143.21,-229.53 -146.21,-232.98 -146.73,-237.53 -144.77,-243.16"/>
    </edge>
    <edge id=":J21_3" function="internal">
        <lane id=":J21_3_0" index="0" speed="6.10" length="9.06" shape="-139.09,-240.22 -139.93,-237.80 -139.70,-235.84 -138.42,-234.36 -136.06,-233.34"/>
        <lane id=":J21_3_1" index="1" speed="7.67" length="15.07" shape="-141.93,-241.69 -143.33,-237.66 -142.96,-234.41 -140.81,-231.94 -136.90,-230.25"/>
    </edge>
    <edge id=":J21_5" function="internal">
        <lane id=":J21_5_0" index="0" speed="9.88" length="2.71" shape="-141.93,-241.69 -143.45,-239.44"/>
    </edge>
    <edge id=":J21_8" function="internal">
        <lane id=":J21_8_0" index="0" speed="9.88" length="17.69" shape="-143.45,-239.44 -145.27,-236.75 -149.14,-233.80 -153.56,-232.85 -158.50,-233.89"/>
    </edge>
    <edge id=":J21_6" function="internal">
        <lane id=":J21_6_0" index="0" speed="7.35" length="10.87" shape="-156.18,-239.85 -153.74,-239.41 -151.50,-240.06 -149.46,-241.80 -147.61,-244.63"/>
    </edge>
    <edge id=":J21_7" function="internal">
        <lane id=":J21_7_0" index="0" speed="13.89" length="21.50" shape="-157.34,-236.87 -151.57,-234.67 -147.25,-233.18 -142.86,-231.88 -136.90,-230.25"/>
    </edge>
    <edge id=":J22_0" function="internal">
        <lane id=":J22_0_0" index="0" speed="13.89" length="1.25" shape="-48.04,-199.38 -48.19,-199.49 -48.30,-199.56 -48.42,-199.61 -48.60,-199.66"/>
        <lane id=":J22_0_1" index="1" speed="9.23" length="1.25" shape="-46.09,-201.92 -46.54,-202.26 -46.87,-202.46 -47.22,-202.59 -47.76,-202.75"/>
    </edge>
    <edge id=":J22_2" function="internal">
        <lane id=":J22_2_0" index="0" speed="13.89" length="3.76" shape="-46.08,-208.92 -44.83,-208.57 -44.00,-208.24 -43.23,-207.78 -42.19,-207.00"/>
        <lane id=":J22_2_1" index="1" speed="11.79" length="3.76" shape="-46.92,-205.84 -46.03,-205.58 -45.43,-205.35 -44.89,-205.02 -44.14,-204.46"/>
    </edge>
    <edge id=":J28_0" function="internal">
        <lane id=":J28_0_0" index="0" speed="10.26" length="11.85" shape="40.34,-138.42 37.97,-137.98 35.60,-136.76 33.22,-134.76 30.84,-131.97"/>
    </edge>
    <edge id=":J28_1" function="internal">
        <lane id=":J28_1_0" index="0" speed="13.89" length="19.16" shape="40.34,-138.42 34.45,-138.61 30.46,-139.67 26.84,-141.88 22.09,-145.54"/>
        <lane id=":J28_1_1" index="1" speed="13.89" length="19.16" shape="40.28,-141.62 35.03,-141.81 31.48,-142.79 28.27,-144.80 24.04,-148.07"/>
    </edge>
    <edge id=":J28_3" function="internal">
        <lane id=":J28_3_0" index="0" speed="13.69" length="14.80" shape="27.94,-153.15 31.13,-150.63 33.53,-149.02 36.19,-148.20 40.16,-148.01"/>
        <lane id=":J28_3_1" index="1" speed="13.89" length="14.80" shape="25.99,-150.61 29.70,-147.71 32.51,-145.90 35.61,-145.00 40.22,-144.81"/>
    </edge>
    <edge id=":J28_5" function="internal">
        <lane id=":J28_5_0" index="0" speed="9.26" length="5.10" shape="25.99,-150.61 29.55,-146.97"/>
    </edge>
    <edge id=":J28_8" function="internal">
        <lane id=":J28_8_0" index="0" speed="9.26" length="14.10" shape="29.55,-146.97 29.66,-146.86 31.27,-142.82 30.81,-138.50 28.28,-133.89"/>
    </edge>
    <edge id=":J28_6" function="internal">
        <lane id=":J28_6_0" index="0" speed="6.51" length="8.96" shape="23.16,-137.73 24.34,-139.88 24.55,-141.90 23.80,-143.78 22.09,-145.54"/>
    </edge>
    <edge id=":J28_7" function="internal">
        <lane id=":J28_7_0" index="0" speed="12.43" length="17.65" shape="25.72,-135.81 29.12,-139.70 32.66,-142.49 36.36,-144.20 40.22,-144.81"/>
    </edge>
    <edge id=":J29_0" function="internal">
        <lane id=":J29_0_0" index="0" speed="13.89" length="1.61" shape="128.48,-139.90 128.27,-140.01 128.11,-140.06 127.95,-140.08 127.71,-140.08"/>
        <lane id=":J29_0_1" index="1" speed="7.78" length="1.61" shape="129.96,-142.74 129.32,-143.06 128.85,-143.22 128.36,-143.28 127.65,-143.28"/>
    </edge>
    <edge id=":J29_2" function="internal">
        <lane id=":J29_2_0" index="0" speed="11.63" length="4.82" shape="127.53,-149.68 129.19,-149.68 130.34,-149.55 131.42,-149.16 132.91,-148.42"/>
        <lane id=":J29_2_1" index="1" speed="9.89" length="4.82" shape="127.59,-146.48 128.78,-146.48 129.60,-146.38 130.37,-146.11 131.43,-145.58"/>
    </edge>
    <edge id=":J32_0" function="internal">
        <lane id=":J32_0_0" index="0" speed="13.89" length="28.83" shape="184.09,-31.18 180.83,-31.35 175.41,-29.53 167.82,-25.72 158.06,-19.92"/>
    </edge>
    <edge id=":J32_1" function="internal">
        <lane id=":J32_1_0" index="0" speed="13.89" length="30.13" shape="184.09,-31.18 180.41,-31.82 174.31,-31.08 165.80,-28.96 154.87,-25.47"/>
    </edge>
    <edge id=":J32_2" function="internal">
        <lane id=":J32_2_0" index="0" speed="13.89" length="35.81" shape="184.09,-31.18 176.32,-34.16 167.07,-36.22 157.62,-37.67 149.25,-38.84"/>
        <lane id=":J32_2_1" index="1" speed="13.89" length="36.89" shape="185.60,-34.00 177.67,-37.03 168.07,-39.21 158.27,-40.78 149.73,-42.01"/>
    </edge>
    <edge id=":J32_4" function="internal">
        <lane id=":J32_4_0" index="0" speed="13.89" length="35.23" shape="185.60,-34.00 178.58,-38.41 171.14,-43.97 163.90,-49.83 157.49,-55.15"/>
    </edge>
    <edge id=":J32_5" function="internal">