<?xml version="1.0" encoding="UTF-8"?>

<!-- generated on 2025-06-27 15:06:33 by Eclipse SUMO netedit Version 1.22.0
<neteditConfiguration xmlns:xsi="http://www.w3.org/2001/XMLSchema-instance" xsi:noNamespaceSchemaLocation="http://sumo.dlr.de/xsd/neteditConfiguration.xsd">

    <input>
        <sumocfg-file value="C:\Users\Admin\Downloads\sumo test\New folder\20 node\20e.sumocfg"/>
        <route-files value="C:\Users\Admin\Downloads\sumo test\New folder\20 node\20e.rou.xml"/>
        <sumo-net-file value="C:\Users\Admin\Downloads\sumo test\New folder\20 node\20e.net.xml"/>
    </input>

    <output>
        <output-file value="C:\Users\Admin\Downloads\sumo test\New folder\20 node\20e.net.xml"/>
    </output>

    <processing>
        <offset.disable-normalization value="true"/>
    </processing>

    <junctions>
        <no-turnarounds value="true"/>
    </junctions>

    <netedit>
        <new-network value="false"/>
    </netedit>

</neteditConfiguration>
-->

<net version="1.20" junctionCornerDetail="5" limitTurnSpeed="5.50" xmlns:xsi="http://www.w3.org/2001/XMLSchema-instance" xsi:noNamespaceSchemaLocation="http://sumo.dlr.de/xsd/net_file.xsd">

    <location netOffset="0.00,0.00" convBoundary="-200.17,-324.33,287.55,98.50" origBoundary="10000000000.00,10000000000.00,-10000000000.00,-10000000000.00" projParameter="!"/>

    <edge id=":J10_0" function="internal">
        <lane id=":J10_0_0" index="0" speed="8.52" length="25.14" shape="275.93,12.60 282.95,14.80 287.46,18.89 288.49,24.06 285.06,29.50"/>
        <lane id=":J10_0_1" index="1" speed="7.81" length="21.05" shape="275.54,15.78 282.70,17.38 286.17,19.92 285.97,23.42 282.08,27.86"/>
    </edge>
    <edge id=":J10_2" function="internal">
        <lane id=":J10_2_0" index="0" speed="3.98" length="4.36" shape="276.07,24.56 276.92,23.67 276.98,22.97 276.26,22.46 274.75,22.13"/>
        <lane id=":J10_2_1" index="1" speed="6.21" length="12.89" shape="279.10,26.22 281.55,23.56 281.71,21.47 279.57,19.93 275.14,18.96"/>
    </edge>
    <edge id=":J11_0" function="internal">
        <lane id=":J11_0_0" index="0" speed="7.91" length="7.56" shape="-88.74,17.66 -89.94,15.88 -91.31,14.56 -92.85,13.71 -94.56,13.32"/>
    </edge>
    <edge id=":J11_1" function="internal">
        <lane id=":J11_1_0" index="0" speed="9.45" length="14.55" shape="-85.94,16.11 -87.36,12.56 -87.62,9.12 -86.71,5.79 -84.64,2.57"/>
    </edge>
    <edge id=":J11_2" function="internal">
        <lane id=":J11_2_0" index="0" speed="6.63" length="6.79" shape="-79.74,6.69 -80.70,8.19 -81.13,9.74 -81.01,11.35 -80.34,13.01"/>
    </edge>
    <edge id=":J11_3" function="internal">
        <lane id=":J11_3_0" index="0" speed="11.72" length="16.90" shape="-79.74,6.69 -82.99,9.88 -86.54,12.04 -90.40,13.19 -94.56,13.32"/>
        <lane id=":J11_3_1" index="1" speed="10.64" length="13.82" shape="-82.19,4.63 -84.87,7.27 -87.78,9.06 -90.91,10.02 -94.28,10.13"/>
    </edge>
    <edge id=":J11_5" function="internal">
        <lane id=":J11_5_0" index="0" speed="8.05" length="7.67" shape="-93.71,3.76 -91.94,3.68 -90.24,3.11 -88.62,2.05 -87.09,0.52"/>
        <lane id=":J11_5_1" index="1" speed="9.43" length="10.74" shape="-93.99,6.94 -91.42,6.85 -89.01,6.09 -86.75,4.66 -84.64,2.57"/>
    </edge>
    <edge id=":J11_7" function="internal">
        <lane id=":J11_7_0" index="0" speed="10.52" length="2.90" shape="-93.99,6.94 -91.16,7.55"/>
    </edge>
    <edge id=":J11_8" function="internal">
        <lane id=":J11_8_0" index="0" speed="10.52" length="10.92" shape="-91.16,7.55 -90.70,7.65 -87.80,9.16 -85.28,11.46 -83.14,14.56"/>
    </edge>
    <edge id=":J12_0" function="internal">
        <lane id=":J12_0_0" index="0" speed="13.89" length="37.23" shape="-29.66,101.60 -38.13,100.79 -47.78,97.25 -57.17,92.49 -64.92,88.01"/>
        <lane id=":J12_0_1" index="1" speed="13.89" length="37.23" shape="-30.11,98.43 -38.26,97.69 -47.19,94.29 -55.86,89.67 -63.28,85.26"/>
    </edge>
    <edge id=":J12_2" function="internal">
        <lane id=":J12_2_0" index="0" speed="13.89" length="5.09" shape="-30.11,98.43 -35.10,97.45"/>
    </edge>
    <edge id=":J12_8" function="internal">
        <lane id=":J12_8_0" index="0" speed="13.89" length="29.63" shape="-35.10,97.45 -40.67,93.15 -46.80,85.53 -53.50,74.60"/>
    </edge>
    <edge id=":J12_3" function="internal">
        <lane id=":J12_3_0" index="0" speed="12.77" length="27.26" shape="-47.90,71.50 -42.41,80.78 -37.77,87.31 -33.97,91.08 -31.02,92.09"/>
    </edge>
    <edge id=":J12_4" function="internal">
        <lane id=":J12_4_0" index="0" speed="7.75" length="23.83" shape="-50.70,73.05 -49.49,79.25 -52.08,84.22 -57.12,86.65 -63.28,85.26"/>
    </edge>
    <edge id=":J12_5" function="internal">
        <lane id=":J12_5_0" index="0" speed="5.52" length="11.16" shape="-60.01,79.76 -56.58,81.44 -54.82,81.39 -54.72,79.63 -56.29,76.15"/>
    </edge>
    <edge id=":J12_6" function="internal">
        <lane id=":J12_6_0" index="0" speed="13.89" length="33.10" shape="-60.01,79.76 -53.25,84.04 -46.00,88.38 -38.52,91.49 -31.02,92.09"/>
        <lane id=":J12_6_1" index="1" speed="13.89" length="33.10" shape="-61.64,82.51 -54.55,86.86 -46.59,91.34 -38.39,94.59 -30.57,95.26"/>
    </edge>
    <edge id=":J13_0" function="internal">
        <lane id=":J13_0_0" index="0" speed="13.89" length="22.64" shape="33.13,95.82 26.88,95.05 22.07,94.76 17.27,94.98 11.03,95.76"/>
        <lane id=":J13_0_1" index="1" speed="13.89" length="22.64" shape="33.55,92.65 27.17,91.88 22.06,91.59 16.95,91.81 10.58,92.59"/>
    </edge>
    <edge id=":J13_2" function="internal">
        <lane id=":J13_2_0" index="0" speed="13.89" length="3.27" shape="33.55,92.65 30.47,91.56"/>
    </edge>
    <edge id=":J13_3" function="internal">
        <lane id=":J13_3_0" index="0" speed="10.44" length="2.70" shape="33.55,92.65 31.05,91.62"/>
    </edge>
    <edge id=":J13_16" function="internal">
        <lane id=":J13_16_0" index="0" speed="13.89" length="29.79" shape="30.47,91.56 27.33,90.45 22.00,85.63 17.58,78.21 14.05,68.17"/>
    </edge>
    <edge id=":J13_17" function="internal">
        <lane id=":J13_17_0" index="0" speed="10.44" length="27.30" shape="31.05,91.62 26.99,89.93 24.64,84.58 25.56,77.13 28.80,68.14"/>
    </edge>
    <edge id=":J13_4" function="internal">
        <lane id=":J13_4_0" index="0" speed="8.09" length="17.54" shape="34.69,70.65 32.30,77.20 31.45,81.99 32.16,85.02 34.41,86.31"/>
    </edge>
    <edge id=":J13_5" function="internal">
        <lane id=":J13_5_0" index="0" speed="13.89" length="35.90" shape="34.69,70.65 29.51,80.89 23.84,88.49 17.68,93.45 11.03,95.76"/>
        <lane id=":J13_5_1" index="1" speed="13.89" length="32.64" shape="31.75,69.40 26.99,78.90 21.88,85.93 16.40,90.49 10.58,92.59"/>
    </edge>
    <edge id=":J13_7" function="internal">
        <lane id=":J13_7_0" index="0" speed="7.97" length="23.75" shape="31.75,69.40 27.71,74.37 22.42,75.75 17.36,73.65 14.05,68.17"/>
    </edge>
    <edge id=":J13_8" function="internal">
        <lane id=":J13_8_0" index="0" speed="5.46" length="10.20" shape="20.23,66.50 21.43,69.64 22.76,70.75 24.24,69.83 25.86,66.89"/>
    </edge>
    <edge id=":J13_9" function="internal">
        <lane id=":J13_9_0" index="0" speed="12.61" length="25.60" shape="20.23,66.50 23.00,74.70 26.29,80.74 30.09,84.61 34.41,86.31"/>
        <lane id=":J13_9_1" index="1" speed="13.48" length="29.33" shape="17.14,67.33 20.29,76.46 24.15,83.19 28.71,87.53 33.98,89.48"/>
    </edge>
    <edge id=":J13_11" function="internal">
        <lane id=":J13_11_0" index="0" speed="10.96" length="30.11" shape="17.14,67.33 19.23,76.97 19.32,84.63 16.67,89.96 10.58,92.59"/>
    </edge>
    <edge id=":J13_12" function="internal">
        <lane id=":J13_12_0" index="0" speed="8.76" length="18.81" shape="9.67,86.25 11.90,84.87 12.87,81.53 12.55,76.24 10.96,69.01"/>
    </edge>
    <edge id=":J13_13" function="internal">
        <lane id=":J13_13_0" index="0" speed="13.89" length="27.53" shape="9.67,86.25 15.42,84.47 20.53,80.85 24.99,75.41 28.80,68.14"/>
    </edge>
    <edge id=":J13_14" function="internal">
        <lane id=":J13_14_0" index="0" speed="13.89" length="24.40" shape="9.67,86.25 16.31,85.48 22.03,85.25 27.75,85.54 34.41,86.31"/>
        <lane id=":J13_14_1" index="1" speed="13.89" length="24.40" shape="10.12,89.42 16.63,88.64 22.05,88.42 27.46,88.71 33.98,89.48"/>
    </edge>
    <edge id=":J14_0" function="internal">
        <lane id=":J14_0_0" index="0" speed="13.89" length="24.29" shape="99.78,101.03 93.21,102.24 87.53,102.60 81.81,102.29 75.15,101.48"/>
        <lane id=":J14_0_1" index="1" speed="13.89" length="24.29" shape="99.17,97.89 92.77,99.10 87.44,99.45 82.07,99.12 75.58,98.31"/>
    </edge>
    <edge id=":J14_2" function="internal">
        <lane id=":J14_2_0" index="0" speed="9.77" length="4.95" shape="99.17,97.89 94.22,98.12"/>
    </edge>
    <edge id=":J14_8" function="internal">
        <lane id=":J14_8_0" index="0" speed="9.77" length="16.65" shape="94.22,98.12 93.99,98.13 89.79,96.21 86.58,92.14 84.35,85.91"/>
    </edge>
    <edge id=":J14_3" function="internal">
        <lane id=":J14_3_0" index="0" speed="7.29" length="11.56" shape="90.58,84.43 91.79,88.04 93.43,90.43 95.48,91.62 97.97,91.60"/>
    </edge>
    <edge id=":J14_4" function="internal">
        <lane id=":J14_4_0" index="0" speed="8.85" length="22.54" shape="87.47,85.17 88.08,91.70 86.30,96.07 82.13,98.27 75.58,98.31"/>
    </edge>
    <edge id=":J14_5" function="internal">
        <lane id=":J14_5_0" index="0" speed="5.86" length="9.12" shape="76.43,91.96 79.08,91.95 80.77,91.06 81.49,89.29 81.24,86.65"/>
    </edge>
    <edge id=":J14_6" function="internal">
        <lane id=":J14_6_0" index="0" speed="13.89" length="22.24" shape="76.43,91.96 82.61,92.79 87.26,93.13 91.88,92.80 97.97,91.60"/>
        <lane id=":J14_6_1" index="1" speed="13.89" length="22.24" shape="76.00,95.14 82.34,95.96 87.35,96.29 92.33,95.95 98.57,94.74"/>
    </edge>
    <edge id=":J15_0" function="internal">
        <lane id=":J15_0_0" index="0" speed="4.01" length="1.71" shape="181.39,-111.48 181.33,-111.92 181.16,-112.29 180.90,-112.61 180.53,-112.86"/>
        <lane id=":J15_0_1" index="1" speed="6.29" length="5.12" shape="184.59,-111.57 184.40,-112.89 183.90,-114.01 183.10,-114.95 182.00,-115.69"/>
    </edge>
    <edge id=":J15_2" function="internal">
        <lane id=":J15_2_0" index="0" speed="9.29" length="11.94" shape="184.95,-121.37 187.52,-119.63 189.38,-117.45 190.54,-114.83 190.99,-111.76"/>
        <lane id=":J15_2_1" index="1" speed="7.93" length="8.53" shape="183.48,-118.53 185.31,-117.29 186.64,-115.73 187.47,-113.86 187.79,-111.67"/>
    </edge>
    <edge id=":J16_0" function="internal">
        <lane id=":J16_0_0" index="0" speed="13.89" length="48.52" shape="192.63,-54.80 190.42,-47.48 183.35,-40.74 171.43,-34.59 154.64,-29.03"/>
        <lane id=":J16_0_1" index="1" speed="13.89" length="44.34" shape="189.43,-54.71 187.34,-48.52 180.70,-42.70 169.52,-37.22 153.80,-32.11"/>
    </edge>
    <edge id=":J16_2" function="internal">
        <lane id=":J16_2_0" index="0" speed="12.75" length="6.96" shape="189.43,-54.71 186.71,-48.31"/>
    </edge>
    <edge id=":J16_8" function="internal">
        <lane id=":J16_8_0" index="0" speed="12.75" length="35.17" shape="186.71,-48.31 178.82,-45.26 166.93,-44.80 152.18,-46.15"/>
    </edge>
    <edge id=":J16_3" function="internal">
        <lane id=":J16_3_0" index="0" speed="11.05" length="31.36" shape="152.99,-52.50 166.19,-51.19 175.60,-51.09 181.22,-52.20 183.03,-54.53"/>
    </edge>
    <edge id=":J16_4" function="internal">
        <lane id=":J16_4_0" index="0" speed="7.55" length="23.76" shape="152.58,-49.33 158.08,-46.48 160.22,-41.22 158.85,-35.70 153.80,-32.11"/>
    </edge>
    <edge id=":J16_5" function="internal">
        <lane id=":J16_5_0" index="0" speed="5.74" length="12.92" shape="152.11,-38.28 156.43,-39.77 157.82,-41.05 156.27,-42.12 151.77,-42.98"/>
    </edge>
    <edge id=":J16_6" function="internal">
        <lane id=":J16_6_0" index="0" speed="13.79" length="36.13" shape="152.11,-38.28 165.72,-42.50 175.41,-46.61 181.18,-50.62 183.03,-54.53"/>
        <lane id=":J16_6_1" index="1" speed="13.89" length="40.21" shape="152.95,-35.20 167.62,-39.86 178.06,-44.65 184.26,-49.57 186.23,-54.62"/>
    </edge>
    <edge id=":J17_0" function="internal">
        <lane id=":J17_0_0" index="0" speed="6.59" length="13.59" shape="-20.63,-47.45 -22.37,-52.49 -24.26,-55.32 -26.31,-55.94 -28.50,-54.34"/>
    </edge>
    <edge id=":J17_1" function="internal">
        <lane id=":J17_1_0" index="0" speed="13.78" length="27.83" shape="-20.63,-47.45 -23.52,-55.64 -27.20,-61.86 -31.69,-66.09 -36.97,-68.35"/>
    </edge>
    <edge id=":J17_2" function="internal">
        <lane id=":J17_2_0" index="0" speed="13.89" length="38.82" shape="-20.63,-47.45 -22.76,-58.57 -22.79,-68.49 -20.73,-77.22 -16.57,-84.75"/>
        <lane id=":J17_2_1" index="1" speed="13.89" length="35.91" shape="-17.54,-48.29 -19.55,-58.67 -19.63,-67.88 -17.79,-75.94 -14.01,-82.83"/>
    </edge>
    <edge id=":J17_4" function="internal">
        <lane id=":J17_4_0" index="0" speed="11.55" length="39.87" shape="-17.54,-48.29 -18.02,-58.84 -13.27,-65.25 -4.36,-68.05 7.62,-67.75"/>
    </edge>
    <edge id=":J17_5" function="internal">
        <lane id=":J17_5_0" index="0" speed="8.72" length="28.55" shape="-17.54,-48.29 -16.99,-55.02 -12.02,-58.10 -4.65,-57.72 3.11,-54.09"/>
    </edge>
    <edge id=":J17_6" function="internal">
        <lane id=":J17_6_0" index="0" speed="6.55" length="15.38" shape="-0.61,-48.88 -6.15,-52.43 -9.78,-53.79 -11.52,-52.96 -11.36,-49.96"/>
    </edge>
    <edge id=":J17_7" function="internal">
        <lane id=":J17_7_0" index="0" speed="11.95" length="30.96" shape="-0.61,-48.88 -9.97,-54.66 -17.74,-57.50 -23.91,-57.39 -28.50,-54.34"/>
    </edge>
    <edge id=":J17_8" function="internal">
        <lane id=":J17_8_0" index="0" speed="13.89" length="42.03" shape="-0.61,-48.88 -8.35,-54.07 -18.18,-59.98 -28.31,-65.21 -36.97,-68.35"/>
        <lane id=":J17_8_1" index="1" speed="13.89" length="42.03" shape="1.25,-51.49 -6.67,-56.76 -16.90,-62.84 -27.43,-68.25 -36.27,-71.47"/>
    </edge>
    <edge id=":J17_10" function="internal">
        <lane id=":J17_10_0" index="0" speed="12.85" length="6.22" shape="1.25,-51.49 -3.52,-55.48"/>
    </edge>
    <edge id=":J17_11" function="internal">
        <lane id=":J17_11_0" index="0" speed="7.70" length="2.14" shape="1.25,-51.49 -0.01,-53.22"/>
    </edge>
    <edge id=":J17_37" function="internal">
        <lane id=":J17_37_0" index="0" speed="12.85" length="32.69" shape="-3.52,-55.48 -9.17,-60.21 -15.19,-68.34 -16.80,-75.88 -14.01,-82.83"/>
    </edge>
    <edge id=":J17_38" function="internal">
        <lane id=":J17_38_0" index="0" speed="7.70" length="21.68" shape="-0.01,-53.22 -2.44,-56.58 -2.14,-62.20 1.45,-66.52 7.62,-67.75"/>
    </edge>
    <edge id=":J17_12" function="internal">
        <lane id=":J17_12_0" index="0" speed="5.56" length="11.50" shape="6.81,-61.40 2.85,-61.60 1.22,-60.88 1.93,-59.24 4.97,-56.70"/>
    </edge>
    <edge id=":J17_13" function="internal">
        <lane id=":J17_13_0" index="0" speed="9.54" length="26.79" shape="6.81,-61.40 -2.59,-61.74 -8.75,-59.94 -11.67,-56.02 -11.36,-49.96"/>
    </edge>
    <edge id=":J17_14" function="internal">
        <lane id=":J17_14_0" index="0" speed="13.89" length="39.24" shape="6.81,-61.40 -6.92,-62.54 -17.79,-62.08 -25.81,-60.04 -30.96,-56.40"/>
    </edge>
    <edge id=":J17_15" function="internal">
        <lane id=":J17_15_0" index="0" speed="13.89" length="44.19" shape="6.81,-61.40 -2.84,-62.72 -15.14,-64.53 -27.40,-66.52 -36.97,-68.35"/>
        <lane id=":J17_15_1" index="1" speed="13.89" length="44.19" shape="7.22,-64.58 -2.39,-65.88 -14.59,-67.68 -26.75,-69.66 -36.27,-71.47"/>
    </edge>
    <edge id=":J17_17" function="internal">
        <lane id=":J17_17_0" index="0" speed="10.51" length="35.23" shape="7.22,-64.58 -3.86,-66.60 -12.51,-70.00 -16.61,-75.27 -14.01,-82.83"/>
    </edge>
    <edge id=":J17_18" function="internal">
        <lane id=":J17_18_0" index="0" speed="8.25" length="21.15" shape="-8.89,-78.99 -9.36,-76.47 -6.69,-74.28 -0.90,-72.43 8.02,-70.93"/>
    </edge>
    <edge id=":J17_19" function="internal">
        <lane id=":J17_19_0" index="0" speed="11.08" length="28.69" shape="-8.89,-78.99 -10.30,-74.57 -8.46,-69.38 -3.37,-63.42 4.97,-56.70"/>
    </edge>
    <edge id=":J17_20" function="internal">
        <lane id=":J17_20_0" index="0" speed="13.89" length="31.48" shape="-8.89,-78.99 -13.00,-72.11 -15.30,-64.84 -15.78,-57.18 -14.45,-49.12"/>
    </edge>
    <edge id=":J17_21" function="internal">
        <lane id=":J17_21_0" index="0" speed="13.89" length="31.41" shape="-8.89,-78.99 -28.50,-54.34"/>
        <lane id=":J17_21_1" index="1" speed="13.89" length="31.41" shape="-11.45,-80.91 -30.96,-56.40"/>
    </edge>
    <edge id=":J17_23" function="internal">
        <lane id=":J17_23_0" index="0" speed="13.40" length="7.47" shape="-11.45,-80.91 -16.61,-75.51"/>
    </edge>
    <edge id=":J17_39" function="internal">
        <lane id=":J17_39_0" index="0" speed="13.40" length="20.73" shape="-16.61,-75.51 -22.47,-72.14 -29.02,-70.79 -36.27,-71.47"/>
    </edge>
    <edge id=":J17_24" function="internal">
        <lane id=":J17_24_0" index="0" speed="11.57" length="20.82" shape="-34.88,-77.72 -29.55,-77.23 -24.72,-78.23 -20.40,-80.74 -16.57,-84.75"/>
    </edge>
    <edge id=":J17_25" function="internal">
        <lane id=":J17_25_0" index="0" speed="13.89" length="43.55" shape="-34.88,-77.72 -25.45,-75.92 -13.49,-73.98 -1.49,-72.22 8.02,-70.93"/>
        <lane id=":J17_25_1" index="1" speed="13.89" length="43.55" shape="-34.88,-77.72 -25.51,-75.42 -13.69,-72.39 -1.83,-69.54 7.62,-67.75"/>
    </edge>
    <edge id=":J17_27" function="internal">
        <lane id=":J17_27_0" index="0" speed="13.89" length="45.20" shape="-34.88,-77.72 -25.68,-74.33 -14.35,-68.57 -3.32,-62.13 4.97,-56.70"/>
        <lane id=":J17_27_1" index="1" speed="13.89" length="43.93" shape="-35.57,-74.60 -26.56,-71.29 -15.62,-65.71 -5.00,-59.44 3.11,-54.09"/>
    </edge>
    <edge id=":J17_29" function="internal">
        <lane id=":J17_29_0" index="0" speed="13.89" length="8.47" shape="-35.57,-74.60 -28.58,-71.74 -27.90,-71.13"/>
    </edge>
    <edge id=":J17_30" function="internal">
        <lane id=":J17_30_0" index="0" speed="9.02" length="7.80" shape="-35.57,-74.60 -29.00,-72.06 -28.54,-71.46"/>
    </edge>
    <edge id=":J17_40" function="internal">
        <lane id=":J17_40_0" index="0" speed="13.89" length="26.31" shape="-27.90,-71.13 -22.73,-66.54 -18.02,-59.00 -14.45,-49.12"/>
    </edge>
    <edge id=":J17_41" function="internal">
        <lane id=":J17_41_0" index="0" speed="9.02" length="17.20" shape="-28.54,-71.46 -26.04,-68.18 -26.69,-62.96 -30.96,-56.40"/>
    </edge>
    <edge id=":J17_31" function="internal">
        <lane id=":J17_31_0" index="0" speed="6.04" length="10.43" shape="-35.86,-60.52 -33.91,-63.40 -33.45,-65.67 -34.47,-67.32 -36.97,-68.35"/>
    </edge>
    <edge id=":J17_32" function="internal">
        <lane id=":J17_32_0" index="0" speed="13.89" length="31.06" shape="-35.86,-60.52 -16.57,-84.75"/>
        <lane id=":J17_32_1" index="1" speed="13.89" length="31.06" shape="-33.41,-58.46 -14.01,-82.83"/>
    </edge>
    <edge id=":J17_34" function="internal">
        <lane id=":J17_34_0" index="0" speed="13.89" length="3.43" shape="-33.41,-58.46 -30.75,-60.64"/>
    </edge>
    <edge id=":J17_35" function="internal">
        <lane id=":J17_35_0" index="0" speed="13.62" length="2.79" shape="-33.41,-58.46 -31.16,-60.11"/>
    </edge>
    <edge id=":J17_36" function="internal">
        <lane id=":J17_36_0" index="0" speed="9.09" length="2.53" shape="-33.41,-58.46 -31.32,-59.89"/>
    </edge>
    <edge id=":J17_42" function="internal">
        <lane id=":J17_42_0" index="0" speed="13.89" length="40.27" shape="-30.75,-60.64 -26.71,-63.96 -17.65,-67.34 -6.20,-68.60 7.62,-67.75"/>
    </edge>
    <edge id=":J17_43" function="internal">
        <lane id=":J17_43_0" index="0" speed="13.62" length="37.75" shape="-31.16,-60.11 -26.85,-63.28 -18.58,-64.15 -8.59,-61.09 3.11,-54.09"/>
    </edge>
    <edge id=":J17_44" function="internal">
        <lane id=":J17_44_0" index="0" speed="9.09" length="24.73" shape="-31.32,-59.89 -27.69,-62.39 -22.25,-61.41 -17.65,-56.63 -14.45,-49.12"/>
    </edge>
    <edge id=":J18_0" function="internal">
        <lane id=":J18_0_0" index="0" speed="13.89" length="1.46" shape="-96.72,-81.67 -96.93,-81.72 -97.08,-81.73 -97.23,-81.72 -97.44,-81.67"/>
        <lane id=":J18_0_1" index="1" speed="8.20" length="1.46" shape="-96.03,-84.80 -96.66,-84.93 -97.11,-84.97 -97.55,-84.92 -98.19,-84.78"/>
    </edge>
    <edge id=":J18_2" function="internal">
        <lane id=":J18_2_0" index="0" speed="12.29" length="4.39" shape="-99.67,-91.01 -98.20,-91.34 -97.16,-91.45 -96.11,-91.35 -94.63,-91.04"/>
        <lane id=":J18_2_1" index="1" speed="10.45" length="4.39" shape="-98.93,-87.89 -97.88,-88.13 -97.13,-88.21 -96.39,-88.14 -95.33,-87.92"/>
    </edge>
    <edge id=":J19_0" function="internal">
        <lane id=":J19_0_0" index="0" speed="13.89" length="23.72" shape="-167.17,-57.69 -169.44,-63.88 -170.93,-69.18 -171.86,-74.61 -172.48,-81.17"/>
        <lane id=":J19_0_1" index="1" speed="13.89" length="23.72" shape="-164.19,-58.86 -166.43,-64.90 -167.84,-69.88 -168.70,-74.98 -169.29,-81.41"/>
    </edge>
    <edge id=":J19_2" function="internal">
        <lane id=":J19_2_0" index="0" speed="9.08" length="5.52" shape="-164.19,-58.86 -165.45,-64.24"/>
    </edge>
    <edge id=":J19_8" function="internal">
        <lane id=":J19_8_0" index="0" speed="9.08" length="15.06" shape="-165.45,-64.24 -165.49,-64.43 -164.56,-68.85 -161.40,-72.13 -156.02,-74.26"/>
    </edge>
    <edge id=":J19_3" function="internal">
        <lane id=":J19_3_0" index="0" speed="6.26" length="9.18" shape="-154.53,-68.03 -156.95,-67.08 -158.38,-65.62 -158.80,-63.66 -158.24,-61.20"/>
    </edge>
    <edge id=":J19_4" function="internal">
        <lane id=":J19_4_0" index="0" speed="9.03" length="20.64" shape="-155.27,-71.14 -161.04,-70.62 -165.30,-72.15 -168.05,-75.75 -169.29,-81.41"/>
    </edge>
    <edge id=":J19_5" function="internal">
        <lane id=":J19_5_0" index="0" speed="6.18" length="9.05" shape="-162.91,-81.87 -162.36,-79.39 -161.16,-77.81 -159.29,-77.14 -156.76,-77.37"/>
    </edge>
    <edge id=":J19_6" function="internal">
        <lane id=":J19_6_0" index="0" speed="13.89" length="21.81" shape="-162.91,-81.87 -162.39,-75.74 -161.67,-71.28 -160.41,-66.95 -158.24,-61.20"/>
        <lane id=":J19_6_1" index="1" speed="13.89" length="21.81" shape="-166.10,-81.64 -165.54,-75.36 -164.76,-70.58 -163.42,-65.93 -161.21,-60.03"/>
    </edge>
    <edge id=":J20_0" function="internal">
        <lane id=":J20_0_0" index="0" speed="9.64" length="9.66" shape="-175.01,-116.00 -174.94,-118.48 -174.37,-120.76 -173.30,-122.86 -171.73,-124.77"/>
        <lane id=":J20_0_1" index="1" speed="8.22" length="6.90" shape="-171.82,-116.24 -171.77,-118.00 -171.36,-119.63 -170.60,-121.13 -169.47,-122.49"/>
    </edge>
    <edge id=":J20_2" function="internal">
        <lane id=":J20_2_0" index="0" speed="4.13" length="1.38" shape="-164.96,-117.95 -165.19,-117.68 -165.34,-117.38 -165.42,-117.05 -165.43,-116.70"/>
        <lane id=":J20_2_1" index="1" speed="6.51" length="4.14" shape="-167.22,-120.22 -167.89,-119.40 -168.35,-118.51 -168.60,-117.53 -168.62,-116.47"/>
    </edge>
    <edge id=":J21_0" function="internal">
        <lane id=":J21_0_0" index="0" speed="6.75" length="6.13" shape="-106.39,-171.88 -107.95,-172.17 -109.41,-172.03 -110.77,-171.46 -112.03,-170.47"/>
    </edge>
    <edge id=":J21_1" function="internal">
        <lane id=":J21_1_0" index="0" speed="11.38" length="16.23" shape="-106.39,-171.88 -110.23,-173.54 -113.34,-175.93 -115.73,-179.05 -117.39,-182.91"/>
        <lane id=":J21_1_1" index="1" speed="10.27" length="13.11" shape="-105.45,-174.94 -108.55,-176.28 -111.06,-178.21 -112.99,-180.73 -114.33,-183.84"/>
    </edge>
    <edge id=":J21_3" function="internal">
        <lane id=":J21_3_0" index="0" speed="7.57" length="6.86" shape="-108.21,-185.72 -107.51,-184.09 -106.50,-182.77 -105.19,-181.76 -103.57,-181.06"/>
        <lane id=":J21_3_1" index="1" speed="9.02" length="9.98" shape="-111.27,-184.78 -110.25,-182.41 -108.78,-180.49 -106.87,-179.02 -104.51,-178.00"/>
    </edge>
    <edge id=":J21_5" function="internal">
        <lane id=":J21_5_0" index="0" speed="9.57" length="3.13" shape="-111.27,-184.78 -110.71,-181.70"/>
    </edge>
    <edge id=":J21_8" function="internal">
        <lane id=":J21_8_0" index="0" speed="9.57" length="9.96" shape="-110.71,-181.70 -110.66,-181.43 -110.96,-178.31 -112.17,-175.41 -114.29,-172.75"/>
    </edge>
    <edge id=":J21_6" function="internal">
        <lane id=":J21_6_0" index="0" speed="6.72" length="6.11" shape="-118.80,-177.29 -117.81,-178.53 -117.24,-179.88 -117.10,-181.34 -117.39,-182.91"/>
    </edge>
    <edge id=":J21_7" function="internal">
        <lane id=":J21_7_0" index="0" speed="9.60" length="13.06" shape="-116.54,-175.02 -113.86,-177.12 -110.96,-178.31 -107.85,-178.61 -104.51,-178.00"/>
    </edge>
    <edge id=":J22_0" function="internal">
        <lane id=":J22_0_0" index="0" speed="13.89" length="1.20" shape="-35.43,-150.18 -35.84,-150.25 -36.12,-150.31 -36.40,-150.38 -36.80,-150.50"/>
        <lane id=":J22_0_1" index="1" speed="13.89" length="1.20" shape="-34.88,-153.33 -35.18,-153.38 -35.38,-153.42 -35.57,-153.48 -35.86,-153.56"/>
    </edge>
    <edge id=":J22_2" function="internal">
        <lane id=":J22_2_0" index="0" speed="13.89" length="0.40" shape="-33.98,-159.68 -33.92,-159.66 -33.88,-159.65 -33.84,-159.64 -33.78,-159.63"/>
        <lane id=":J22_2_1" index="1" speed="13.89" length="0.40" shape="-34.92,-156.62 -34.75,-156.57 -34.63,-156.54 -34.51,-156.51 -34.33,-156.48"/>
    </edge>
    <edge id=":J28_0" function="internal">
        <lane id=":J28_0_0" index="0" speed="11.82" length="15.89" shape="40.38,-138.41 37.84,-137.77 34.98,-135.93 31.82,-132.89 28.34,-128.65"/>
    </edge>
    <edge id=":J28_1" function="internal">
        <lane id=":J28_1_0" index="0" speed="13.89" length="22.14" shape="40.38,-138.41 34.07,-138.47 29.20,-138.91 24.35,-139.70 18.12,-140.83"/>
        <lane id=":J28_1_1" index="1" speed="13.89" length="22.14" shape="40.32,-141.61 34.11,-141.66 29.44,-142.08 24.80,-142.86 18.67,-143.98"/>
    </edge>
    <edge id=":J28_3" function="internal">
        <lane id=":J28_3_0" index="0" speed="13.89" length="20.92" shape="19.77,-150.29 25.71,-149.18 29.93,-148.43 34.17,-148.05 40.20,-148.01"/>
        <lane id=":J28_3_1" index="1" speed="13.89" length="20.92" shape="19.22,-147.14 25.26,-146.02 29.68,-145.26 34.14,-144.85 40.26,-144.81"/>
    </edge>
    <edge id=":J28_5" function="internal">
        <lane id=":J28_5_0" index="0" speed="8.81" length="5.58" shape="19.22,-147.14 24.54,-145.44"/>
    </edge>
    <edge id=":J28_8" function="internal">
        <lane id=":J28_8_0" index="0" speed="8.81" length="18.12" shape="24.54,-145.44 25.93,-145.00 29.26,-141.53 29.21,-136.72 25.78,-130.57"/>
    </edge>
    <edge id=":J28_6" function="internal">
        <lane id=":J28_6_0" index="0" speed="5.73" length="9.19" shape="20.66,-134.41 21.99,-136.79 22.01,-138.66 20.72,-140.00 18.12,-140.83"/>
    </edge>
    <edge id=":J28_7" function="internal">
        <lane id=":J28_7_0" index="0" speed="13.74" length="21.66" shape="23.22,-132.49 27.71,-137.82 32.05,-141.66 36.23,-143.99 40.26,-144.81"/>
    </edge>
    <edge id=":J29_0" function="internal">
        <lane id=":J29_0_0" index="0" speed="13.89" length="1.61" shape="128.48,-139.90 128.27,-140.00 128.11,-140.06 127.95,-140.08 127.71,-140.08"/>
        <lane id=":J29_0_1" index="1" speed="7.78" length="1.61" shape="129.96,-142.74 129.32,-143.05 128.85,-143.22 128.36,-143.28 127.65,-143.28"/>
    </edge>
    <edge id=":J29_2" function="internal">
        <lane id=":J29_2_0" index="0" speed="11.63" length="4.82" shape="127.53,-149.68 129.19,-149.68 130.33,-149.54 131.42,-149.16 132.91,-148.42"/>
        <lane id=":J29_2_1" index="1" speed="9.89" length="4.82" shape="127.59,-146.48 128.78,-146.48 129.59,-146.38 130.37,-146.11 131.43,-145.58"/>
    </edge>
    <edge id=":J32_0" function="internal">
        <lane id=":J32_0_0" index="0" speed="5.46" length="10.37" shape="64.20,14.90 63.09,11.63 61.80,10.47 60.33,11.40 58.68,14.42"/>
    </edge>
    <edge id=":J32_1" function="internal">
        <lane id=":J32_1_0" index="0" speed="13.89" length="29.35" shape="64.20,14.90 62.66,7.65 60.90,0.77 58.05,-5.38 53.23,-10.42"/>
        <lane id=":J32_1_1" index="1" speed="13.89" length="29.35" shape="67.32,14.16 65.58,6.62 63.39,-0.90 60.11,-7.69 55.09,-13.02"/>
    </edge>
    <edge id=":J32_3" function="internal">
        <lane id=":J32_3_0" index="0" speed="13.89" length="51.53" shape="67.32,14.16 67.07,2.90 72.11,-6.57 82.43,-14.25 98.03,-20.15"/>
    </edge>
    <edge id=":J32_4" function="internal">
        <lane id=":J32_4_0" index="0" speed="12.71" length="47.61" shape="67.32,14.16 67.34,1.91 73.76,-4.70 85.04,-6.95 99.67,-6.12"/>
    </edge>
    <edge id=":J32_5" function="internal">
        <lane id=":J32_5_0" index="0" speed="10.80" length="34.03" shape="98.88,0.24 86.36,-0.35 77.97,1.53 73.70,5.87 73.54,12.68"/>
    </edge>
    <edge id=":J32_6" function="internal">
        <lane id=":J32_6_0" index="0" speed="13.89" length="45.75" shape="98.88,0.24 84.21,-0.39 72.62,1.77 64.11,6.70 58.68,14.42"/>
    </edge>
    <edge id=":J32_7" function="internal">
        <lane id=":J32_7_0" index="0" speed="13.89" length="46.33" shape="98.88,0.24 88.70,-1.13 75.38,-3.37 62.40,-6.48 53.23,-10.42"/>