<?xml version="1.0" encoding="UTF-8"?>

<!-- generated on 2025-06-27 15:03:27 by Eclipse SUMO netedit Version 1.22.0
-->

<routes xmlns:xsi="http://www.w3.org/2001/XMLSchema-instance" xsi:noNamespaceSchemaLocation="http://sumo.dlr.de/xsd/routes_file.xsd">
    <!-- Vehicles, persons and containers (sorted by depart) -->
    <flow id="f_0" begin="0.00" from="-E38" to="E38" end="3600.00" vehsPerHour="1800"/>
    <flow id="f_1" begin="0.00" from="-E38" to="E38" via="E10 -E18 E13" end="3600.00" vehsPerHour="1800"/>
    <flow id="f_2" begin="0.00" from="-E27" to="E28" via="E8 E20 -E3" end="3600.00" vehsPerHour="1800"/>
    <flow id="f_3" begin="0.00" from="-E30" to="E36" via="-E31 E34 -E34 -E36" end="3600.00" vehsPerHour="1800"/>
    <flow id="f_4" begin="0.00" from="-E29" to="E26" via="E32 -E34" end="3600.00" vehsPerHour="1800"/>
    <flow id="f_5" begin="0.00" from="E29" to="-E28" via="-E6 E6 E15 E28" end="3600.00" vehsPerHour="1800"/>
</routes>
