<?xml version="1.0" encoding="UTF-8"?>

<!-- generated on 2025-06-30 10:42:33 by Eclipse SUMO sumo Version 1.22.0
-->

<sumoConfiguration xmlns:xsi="http://www.w3.org/2001/XMLSchema-instance" xsi:noNamespaceSchemaLocation="http://sumo.dlr.de/xsd/sumoConfiguration.xsd">

    <input>
        <net-file value="20e.net.xml"/>
        <route-files value="20e1.rou.xml"/>
    </input>

</sumoConfiguration>
