<?xml version="1.0" encoding="UTF-8"?>

<!-- generated on 2025-06-27 08:55:21 by Eclipse SUMO netedit Version 1.22.0
<neteditConfiguration xmlns:xsi="http://www.w3.org/2001/XMLSchema-instance" xsi:noNamespaceSchemaLocation="http://sumo.dlr.de/xsd/neteditConfiguration.xsd">

    <input>
        <sumocfg-file value="C:\Users\Admin\Downloads\sumo test\New folder\20 node\20e.sumocfg"/>
        <route-files value="C:\Users\Admin\Downloads\sumo test\New folder\20 node\routes.rou.xml"/>
        <sumo-net-file value="C:\Users\Admin\Downloads\sumo test\New folder\20 node\20e.net.xml"/>
    </input>

    <output>
        <output-file value="C:\Users\Admin\Downloads\sumo test\New folder\20 node\20e.net.xml"/>
    </output>

    <processing>
        <geometry.min-radius.fix.railways value="false"/>
        <geometry.max-grade.fix value="false"/>
        <offset.disable-normalization value="true"/>
        <lefthand value="0"/>
    </processing>

    <junctions>
        <no-turnarounds value="true"/>
        <junctions.corner-detail value="5"/>
        <junctions.limit-turn-speed value="5.50"/>
        <rectangular-lane-cut value="0"/>
    </junctions>

    <pedestrian>
        <walkingareas value="0"/>
    </pedestrian>

</neteditConfiguration>
-->

<net version="1.20" junctionCornerDetail="5" limitTurnSpeed="5.50" xmlns:xsi="http://www.w3.org/2001/XMLSchema-instance" xsi:noNamespaceSchemaLocation="http://sumo.dlr.de/xsd/net_file.xsd">

    <location netOffset="882.72,1528.66" convBoundary="537.17,340.49,1600.24,2182.18" origBoundary="-882.72,-1528.66,912.78,899.36" projParameter="!"/>

    <edge id=":1_0" function="internal">
        <lane id=":1_0_0" index="0" speed="5.98" length="9.08" shape="878.12,1541.28 877.71,1538.71 876.58,1537.13 874.73,1536.55 872.16,1536.96"/>
    </edge>
    <edge id=":1_1" function="internal">
        <lane id=":1_1_0" index="0" speed="13.89" length="21.78" shape="878.12,1541.28 878.00,1535.11 877.73,1530.57 877.06,1526.07 875.72,1520.06"/>
        <lane id=":1_1_1" index="1" speed="13.89" length="21.78" shape="881.32,1541.23 881.19,1534.95 880.89,1530.17 880.18,1525.43 878.83,1519.31"/>
    </edge>
    <edge id=":1_3" function="internal">
        <lane id=":1_3_0" index="0" speed="9.49" length="5.41" shape="881.32,1541.23 881.91,1535.85"/>
    </edge>
    <edge id=":1_4" function="internal">
        <lane id=":1_4_0" index="0" speed="3.65" length="1.44" shape="881.32,1541.23 882.10,1540.02"/>
    </edge>
    <edge id=":1_20" function="internal">
        <lane id=":1_20_0" index="0" speed="9.49" length="15.80" shape="881.91,1535.85 882.00,1535.03 884.26,1530.67 888.10,1528.15 893.53,1527.47"/>
    </edge>
    <edge id=":1_21" function="internal">
        <lane id=":1_21_0" index="0" speed="3.65" length="3.23" shape="882.10,1540.02 882.89,1539.60 883.70,1539.99 884.52,1541.18"/>
    </edge>
    <edge id=":1_5" function="internal">
        <lane id=":1_5_0" index="0" speed="6.84" length="10.50" shape="893.28,1533.86 890.80,1534.24 889.05,1535.57 888.02,1537.87 887.72,1541.13"/>
    </edge>
    <edge id=":1_6" function="internal">
        <lane id=":1_6_0" index="0" speed="13.89" length="22.05" shape="893.28,1533.86 887.11,1533.77 882.56,1534.16 878.08,1535.17 872.16,1536.96"/>
        <lane id=":1_6_1" index="1" speed="13.89" length="22.05" shape="893.40,1530.67 887.06,1530.60 882.14,1531.03 877.30,1532.10 871.21,1533.91"/>
    </edge>
    <edge id=":1_8" function="internal">
        <lane id=":1_8_0" index="0" speed="10.52" length="20.02" shape="893.40,1530.67 888.01,1529.79 883.78,1527.60 880.72,1524.11 878.83,1519.31"/>
    </edge>
    <edge id=":1_9" function="internal">
        <lane id=":1_9_0" index="0" speed="3.65" length="4.67" shape="893.40,1530.67 892.24,1529.82 891.87,1529.01 892.30,1528.22 893.53,1527.47"/>
    </edge>
    <edge id=":1_10" function="internal">
        <lane id=":1_10_0" index="0" speed="8.14" length="11.64" shape="885.05,1517.82 886.15,1520.54 887.94,1522.52 890.44,1523.77 893.65,1524.27"/>
    </edge>
    <edge id=":1_11" function="internal">
        <lane id=":1_11_0" index="0" speed="13.89" length="23.18" shape="885.05,1517.82 886.43,1524.16 887.20,1529.37 887.56,1534.64 887.72,1541.13"/>
        <lane id=":1_11_1" index="1" speed="13.89" length="23.18" shape="881.94,1518.57 883.31,1524.80 884.05,1529.77 884.38,1534.80 884.52,1541.18"/>
    </edge>
    <edge id=":1_13" function="internal">
        <lane id=":1_13_0" index="0" speed="9.86" length="4.68" shape="881.94,1518.57 882.25,1523.24"/>
    </edge>
    <edge id=":1_14" function="internal">
        <lane id=":1_14_0" index="0" speed="3.65" length="1.44" shape="881.94,1518.57 881.44,1519.92"/>
    </edge>
    <edge id=":1_22" function="internal">
        <lane id=":1_22_0" index="0" speed="9.86" length="16.32" shape="882.25,1523.24 882.28,1523.72 880.60,1527.99 876.91,1531.39 871.21,1533.91"/>
    </edge>
    <edge id=":1_23" function="internal">
        <lane id=":1_23_0" index="0" speed="3.65" length="3.23" shape="881.44,1519.92 880.76,1520.50 879.89,1520.29 878.83,1519.31"/>
    </edge>
    <edge id=":1_15" function="internal">
        <lane id=":1_15_0" index="0" speed="7.34" length="11.19" shape="869.32,1527.79 872.60,1526.42 874.76,1524.67 875.80,1522.55 875.72,1520.06"/>
    </edge>
    <edge id=":1_16" function="internal">
        <lane id=":1_16_0" index="0" speed="13.89" length="24.20" shape="869.32,1527.79 875.74,1525.94 881.32,1524.78 886.97,1524.24 893.65,1524.27"/>
        <lane id=":1_16_1" index="1" speed="13.89" length="24.20" shape="870.26,1530.85 876.52,1529.02 881.73,1527.91 887.02,1527.42 893.53,1527.47"/>
    </edge>
    <edge id=":1_18" function="internal">
        <lane id=":1_18_0" index="0" speed="8.91" length="21.73" shape="870.26,1530.85 876.41,1529.86 880.84,1531.26 883.54,1535.03 884.52,1541.18"/>
    </edge>
    <edge id=":1_19" function="internal">
        <lane id=":1_19_0" index="0" speed="3.65" length="4.67" shape="870.26,1530.85 871.65,1531.26 872.27,1531.90 872.12,1532.79 871.21,1533.91"/>
    </edge>
    <edge id=":10_0" function="internal">
        <lane id=":10_0_0" index="0" speed="5.61" length="9.32" shape="720.87,1595.66 719.65,1593.10 718.15,1592.06 716.40,1592.54 714.37,1594.53"/>
    </edge>
    <edge id=":10_1" function="internal">
        <lane id=":10_1_0" index="0" speed="13.89" length="23.88" shape="720.87,1595.66 718.85,1589.51 716.88,1584.76 714.05,1580.61 709.44,1576.24"/>
        <lane id=":10_1_1" index="1" speed="13.89" length="23.88" shape="723.91,1594.66 721.73,1588.28 719.41,1583.02 716.23,1578.36 711.46,1573.76"/>
    </edge>
    <edge id=":10_3" function="internal">
        <lane id=":10_3_0" index="0" speed="10.19" length="5.92" shape="723.91,1594.66 722.62,1588.88"/>
    </edge>
    <edge id=":10_4" function="internal">
        <lane id=":10_4_0" index="0" speed="3.65" length="1.44" shape="723.91,1594.66 724.30,1593.27"/>
    </edge>
    <edge id=":10_20" function="internal">
        <lane id=":10_20_0" index="0" speed="10.19" length="18.08" shape="722.62,1588.88 722.23,1587.13 722.68,1581.25 725.27,1576.99 730.00,1574.37"/>
    </edge>
    <edge id=":10_21" function="internal">
        <lane id=":10_21_0" index="0" speed="3.65" length="3.23" shape="724.30,1593.27 724.93,1592.64 725.82,1592.76 726.95,1593.65"/>
    </edge>
    <edge id=":10_5" function="internal">
        <lane id=":10_5_0" index="0" speed="7.81" length="13.67" shape="731.90,1580.49 729.76,1581.87 728.73,1584.36 728.81,1587.95 729.99,1592.65"/>
    </edge>
    <edge id=":10_6" function="internal">
        <lane id=":10_6_0" index="0" speed="13.89" length="23.91" shape="731.90,1580.49 726.00,1582.82 721.87,1585.67 718.37,1589.43 714.37,1594.53"/>
        <lane id=":10_6_1" index="1" speed="13.89" length="23.91" shape="730.95,1577.43 724.80,1579.94 720.13,1583.15 716.10,1587.29 711.85,1592.55"/>
    </edge>
    <edge id=":10_8" function="internal">
        <lane id=":10_8_0" index="0" speed="12.72" length="20.70" shape="730.95,1577.43 725.66,1578.47 720.64,1578.20 715.91,1576.63 711.46,1573.76"/>
    </edge>
    <edge id=":10_9" function="internal">
        <lane id=":10_9_0" index="0" speed="3.65" length="4.67" shape="730.95,1577.43 729.57,1577.02 728.95,1576.38 729.09,1575.49 730.00,1574.37"/>
    </edge>
    <edge id=":10_10" function="internal">
        <lane id=":10_10_0" index="0" speed="10.66" length="14.38" shape="715.51,1568.80 718.59,1570.79 721.87,1571.87 725.36,1572.04 729.05,1571.32"/>
    </edge>
    <edge id=":10_11" function="internal">
        <lane id=":10_11_0" index="0" speed="13.89" length="27.41" shape="715.51,1568.80 720.60,1573.86 724.48,1579.54 727.49,1585.81 729.99,1592.65"/>
        <lane id=":10_11_1" index="1" speed="13.89" length="27.41" shape="713.48,1571.28 718.41,1576.11 721.95,1581.28 724.61,1587.04 726.95,1593.65"/>
    </edge>
    <edge id=":10_13" function="internal">
        <lane id=":10_13_0" index="0" speed="10.33" length="5.19" shape="713.48,1571.28 716.74,1575.32"/>
    </edge>
    <edge id=":10_14" function="internal">
        <lane id=":10_14_0" index="0" speed="3.65" length="1.44" shape="713.48,1571.28 713.91,1572.66"/>
    </edge>
    <edge id=":10_22" function="internal">
        <lane id=":10_22_0" index="0" speed="10.33" length="18.78" shape="716.74,1575.32 716.82,1575.42 717.66,1580.35 716.01,1586.06 711.85,1592.55"/>
    </edge>
    <edge id=":10_23" function="internal">
        <lane id=":10_23_0" index="0" speed="3.65" length="3.23" shape="713.91,1572.66 713.71,1573.53 712.89,1573.90 711.46,1573.76"/>
    </edge>
    <edge id=":10_15" function="internal">
        <lane id=":10_15_0" index="0" speed="7.99" length="13.92" shape="706.82,1588.60 709.58,1584.52 710.94,1581.09 710.89,1578.33 709.44,1576.24"/>
    </edge>
    <edge id=":10_16" function="internal">
        <lane id=":10_16_0" index="0" speed="13.89" length="27.66" shape="706.82,1588.60 711.55,1583.00 716.67,1578.12 722.42,1574.16 729.05,1571.32"/>
        <lane id=":10_16_1" index="1" speed="13.89" length="27.66" shape="709.34,1590.58 713.82,1585.14 718.40,1580.64 723.61,1577.05 730.00,1574.37"/>
    </edge>
    <edge id=":10_18" function="internal">
        <lane id=":10_18_0" index="0" speed="8.81" length="25.24" shape="709.34,1590.58 714.82,1585.18 719.58,1583.90 723.62,1586.72 726.95,1593.65"/>
    </edge>
    <edge id=":10_19" function="internal">
        <lane id=":10_19_0" index="0" speed="3.65" length="4.67" shape="709.34,1590.58 710.71,1590.13 711.58,1590.31 711.97,1591.11 711.85,1592.55"/>
    </edge>
    <edge id=":1004_0" function="internal">
        <lane id=":1004_0_0" index="0" speed="6.60" length="7.16" shape="746.52,1834.12 744.66,1833.81 742.99,1834.07 741.53,1834.91 740.27,1836.32"/>
    </edge>
    <edge id=":1004_1" function="internal">
        <lane id=":1004_1_0" index="0" speed="13.89" length="16.80" shape="746.52,1834.12 741.53,1832.48 738.24,1830.78 735.59,1828.23 732.48,1824.00"/>
        <lane id=":1004_1_1" index="1" speed="13.89" length="16.80" shape="747.45,1831.05 743.07,1829.61 740.18,1828.13 737.84,1825.89 735.11,1822.18"/>
    </edge>
    <edge id=":1004_3" function="internal">
        <lane id=":1004_3_0" index="0" speed="3.65" length="1.44" shape="747.45,1831.05 746.54,1829.94"/>
    </edge>
    <edge id=":1004_11" function="internal">
        <lane id=":1004_11_0" index="0" speed="3.65" length="3.23" shape="746.54,1829.94 746.39,1829.06 747.00,1828.41 748.38,1827.99"/>
    </edge>
    <edge id=":1004_4" function="internal">
        <lane id=":1004_4_0" index="0" speed="12.54" length="12.45" shape="740.37,1818.54 742.35,1821.22 744.05,1822.83 746.14,1823.89 749.31,1824.93"/>
        <lane id=":1004_4_1" index="1" speed="13.66" length="12.45" shape="737.74,1820.36 740.10,1823.56 742.11,1825.48 744.60,1826.75 748.38,1827.99"/>
    </edge>
    <edge id=":1004_6" function="internal">
        <lane id=":1004_6_0" index="0" speed="9.64" length="4.02" shape="737.74,1820.36 739.53,1823.84 739.55,1823.95"/>
    </edge>
    <edge id=":1004_7" function="internal">
        <lane id=":1004_7_0" index="0" speed="3.65" length="1.44" shape="737.74,1820.36 737.77,1821.80"/>
    </edge>
    <edge id=":1004_12" function="internal">
        <lane id=":1004_12_0" index="0" speed="9.64" length="11.13" shape="739.55,1823.95 740.11,1827.37 739.47,1830.93 737.62,1834.52"/>
    </edge>
    <edge id=":1004_13" function="internal">
        <lane id=":1004_13_0" index="0" speed="3.65" length="3.23" shape="737.77,1821.80 737.34,1822.59 736.45,1822.71 735.11,1822.18"/>
    </edge>
    <edge id=":1004_8" function="internal">
        <lane id=":1004_8_0" index="0" speed="6.91" length="7.41" shape="732.33,1830.93 733.26,1829.14 733.59,1827.39 733.33,1825.68 732.48,1824.00"/>
    </edge>
    <edge id=":1004_9" function="internal">
        <lane id=":1004_9_0" index="0" speed="9.40" length="15.35" shape="734.97,1832.73 737.67,1829.69 740.81,1827.89 744.38,1827.33 748.38,1827.99"/>
    </edge>
    <edge id=":1004_10" function="internal">
        <lane id=":1004_10_0" index="0" speed="3.65" length="4.67" shape="734.97,1832.73 736.31,1832.18 737.20,1832.30 737.63,1833.08 737.62,1834.52"/>
    </edge>
    <edge id=":1010_0" function="internal">
        <lane id=":1010_0_0" index="0" speed="9.02" length="23.23" shape="776.32,2086.04 772.69,2091.72 768.46,2094.16 763.65,2093.37 758.25,2089.34"/>
        <lane id=":1010_0_1" index="1" speed="7.70" length="16.59" shape="773.41,2084.71 770.81,2088.77 767.80,2090.51 764.36,2089.94 760.50,2087.07"/>
    </edge>
    <edge id=":1010_2" function="internal">
        <lane id=":1010_2_0" index="0" speed="3.65" length="1.44" shape="773.41,2084.71 772.18,2085.47"/>
    </edge>
    <edge id=":1010_6" function="internal">
        <lane id=":1010_6_0" index="0" speed="3.65" length="3.23" shape="772.18,2085.47 771.29,2085.50 770.73,2084.80 770.50,2083.38"/>
    </edge>
    <edge id=":1010_3" function="internal">
        <lane id=":1010_3_0" index="0" speed="3.92" length="3.32" shape="765.01,2082.52 765.78,2083.09 766.47,2083.21 767.07,2082.86 767.59,2082.05"/>
        <lane id=":1010_3_1" index="1" speed="6.11" length="9.96" shape="762.76,2084.79 765.07,2086.52 767.13,2086.86 768.94,2085.81 770.50,2083.38"/>
    </edge>
    <edge id=":1010_5" function="internal">
        <lane id=":1010_5_0" index="0" speed="3.65" length="1.30" shape="762.76,2084.79 763.02,2086.07"/>
    </edge>
    <edge id=":1010_7" function="internal">
        <lane id=":1010_7_0" index="0" speed="3.65" length="3.37" shape="763.02,2086.07 763.04,2086.21 762.77,2087.06 761.92,2087.34 760.50,2087.07"/>
    </edge>
    <edge id=":1026_0" function="internal">
        <lane id=":1026_0_0" index="0" speed="13.89" length="2.11" shape="589.47,1723.03 589.37,1722.31 589.33,1721.81 589.34,1721.31 589.38,1720.58"/>
        <lane id=":1026_0_1" index="1" speed="13.89" length="2.11" shape="592.64,1722.56 592.57,1722.04 592.54,1721.69 592.54,1721.33 592.58,1720.81"/>
    </edge>
    <edge id=":1026_2" function="internal">
        <lane id=":1026_2_0" index="0" speed="3.65" length="1.44" shape="592.64,1722.56 593.26,1721.26"/>
    </edge>
    <edge id=":1026_6" function="internal">
        <lane id=":1026_6_0" index="0" speed="3.65" length="3.23" shape="593.26,1721.26 593.99,1720.74 594.84,1721.02 595.81,1722.09"/>
    </edge>
    <edge id=":1026_3" function="internal">
        <lane id=":1026_3_0" index="0" speed="13.89" length="0.70" shape="598.96,1721.28 598.95,1721.38 598.95,1721.45 598.96,1721.52 598.97,1721.62"/>
        <lane id=":1026_3_1" index="1" speed="13.89" length="0.70" shape="595.77,1721.04 595.75,1721.36 595.74,1721.57 595.76,1721.78 595.81,1722.09"/>
    </edge>
    <edge id=":1026_5" function="internal">
        <lane id=":1026_5_0" index="0" speed="3.65" length="1.44" shape="595.77,1721.04 594.88,1722.18"/>
    </edge>
    <edge id=":1026_7" function="internal">
        <lane id=":1026_7_0" index="0" speed="3.65" length="3.23" shape="594.88,1722.18 594.06,1722.52 593.29,1722.07 592.58,1720.81"/>
    </edge>
    <edge id=":1092_0" function="internal">
        <lane id=":1092_0_0" index="0" speed="13.89" length="28.98" shape="647.21,1979.33 642.64,1973.54 639.32,1966.92 636.89,1959.81 635.00,1952.50"/>
        <lane id=":1092_0_1" index="1" speed="13.89" length="28.98" shape="649.47,1977.06 645.02,1971.50 642.00,1965.42 639.87,1958.82 638.11,1951.76"/>
    </edge>
    <edge id=":1092_2" function="internal">
        <lane id=":1092_2_0" index="0" speed="11.49" length="4.88" shape="649.47,1977.06 646.93,1972.89"/>
    </edge>
    <edge id=":1092_3" function="internal">
        <lane id=":1092_3_0" index="0" speed="3.65" length="1.44" shape="649.47,1977.06 649.18,1975.64"/>
    </edge>
    <edge id=":1092_11" function="internal">
        <lane id=":1092_11_0" index="0" speed="11.49" length="21.24" shape="646.93,1972.89 646.85,1972.75 646.58,1967.34 648.64,1960.81 653.04,1953.18"/>
    </edge>
    <edge id=":1092_12" function="internal">
        <lane id=":1092_12_0" index="0" speed="3.65" length="3.23" shape="649.18,1975.64 649.46,1974.79 650.30,1974.51 651.72,1974.78"/>
    </edge>
    <edge id=":1092_4" function="internal">
        <lane id=":1092_4_0" index="0" speed="9.43" length="17.31" shape="658.33,1956.78 655.00,1962.25 653.17,1966.70 652.82,1970.12 653.97,1972.51"/>
    </edge>
    <edge id=":1092_5" function="internal">
        <lane id=":1092_5_0" index="0" speed="8.21" length="23.47" shape="655.69,1954.98 650.91,1959.29 645.67,1960.07 641.05,1957.49 638.11,1951.76"/>
    </edge>
    <edge id=":1092_6" function="internal">
        <lane id=":1092_6_0" index="0" speed="3.65" length="4.67" shape="655.69,1954.98 654.35,1955.52 653.47,1955.40 653.03,1954.62 653.04,1953.18"/>
    </edge>
    <edge id=":1092_7" function="internal">
        <lane id=":1092_7_0" index="0" speed="5.50" length="9.61" shape="644.34,1950.27 645.38,1953.12 646.74,1954.25 648.41,1953.67 650.40,1951.38"/>
    </edge>
    <edge id=":1092_8" function="internal">
        <lane id=":1092_8_0" index="0" speed="13.89" length="25.53" shape="644.34,1950.27 645.82,1956.86 647.36,1962.40 649.80,1967.43 653.97,1972.51"/>
        <lane id=":1092_8_1" index="1" speed="13.89" length="25.53" shape="641.22,1951.01 642.85,1957.84 644.68,1963.91 647.41,1969.47 651.72,1974.78"/>
    </edge>
    <edge id=":1092_10" function="internal">
        <lane id=":1092_10_0" index="0" speed="3.65" length="1.44" shape="641.22,1951.01 640.73,1952.37"/>
    </edge>
    <edge id=":1092_13" function="internal">
        <lane id=":1092_13_0" index="0" speed="3.65" length="3.23" shape="640.73,1952.37 640.04,1952.94 639.17,1952.74 638.11,1951.76"/>
    </edge>
    <edge id=":115_0" function="internal">
        <lane id=":115_0_0" index="0" speed="5.67" length="9.24" shape="1054.42,1227.77 1052.87,1225.47 1051.22,1224.64 1049.49,1225.26 1047.66,1227.34"/>
    </edge>
    <edge id=":115_1" function="internal">
        <lane id=":115_1_0" index="0" speed="13.89" length="22.24" shape="1054.42,1227.77 1051.26,1222.63 1047.46,1218.61 1043.02,1215.73 1037.94,1213.97"/>
        <lane id=":115_1_1" index="1" speed="13.89" length="25.09" shape="1057.29,1226.34 1053.73,1220.58 1049.44,1216.08 1044.40,1212.83 1038.63,1210.84"/>
    </edge>
    <edge id=":115_3" function="internal">
        <lane id=":115_3_0" index="0" speed="3.65" length="1.44" shape="1057.29,1226.34 1057.47,1224.91"/>
    </edge>
    <edge id=":115_11" function="internal">
        <lane id=":115_11_0" index="0" speed="3.65" length="3.23" shape="1057.47,1224.91 1058.01,1224.19 1058.90,1224.19 1060.15,1224.91"/>
    </edge>
    <edge id=":115_4" function="internal">
        <lane id=":115_4_0" index="0" speed="13.89" length="30.79" shape="1040.01,1204.60 1047.18,1207.04 1053.40,1211.01 1058.68,1216.49 1063.02,1223.48"/>
        <lane id=":115_4_1" index="1" speed="13.89" length="27.94" shape="1039.32,1207.72 1045.79,1209.94 1051.42,1213.54 1056.21,1218.53 1060.15,1224.91"/>
    </edge>
    <edge id=":115_6" function="internal">
        <lane id=":115_6_0" index="0" speed="9.08" length="7.27" shape="1039.32,1207.72 1045.42,1210.11 1045.86,1210.67"/>
    </edge>
    <edge id=":115_7" function="internal">
        <lane id=":115_7_0" index="0" speed="3.65" length="1.44" shape="1039.32,1207.72 1040.32,1208.76"/>
    </edge>
    <edge id=":115_12" function="internal">
        <lane id=":115_12_0" index="0" speed="9.08" length="16.54" shape="1045.86,1210.67 1048.40,1213.88 1048.26,1219.03 1044.99,1225.56"/>
    </edge>
    <edge id=":115_13" function="internal">
        <lane id=":115_13_0" index="0" speed="3.65" length="3.23" shape="1040.32,1208.76 1040.54,1209.63 1039.97,1210.32 1038.63,1210.84"/>
    </edge>
    <edge id=":115_8" function="internal">
        <lane id=":115_8_0" index="0" speed="6.20" length="10.38" shape="1039.67,1222.01 1041.23,1219.01 1041.46,1216.66 1040.36,1214.98 1037.94,1213.97"/>
    </edge>
    <edge id=":115_9" function="internal">
        <lane id=":115_9_0" index="0" speed="8.81" length="24.31" shape="1042.33,1223.79 1047.15,1218.31 1051.73,1216.67 1056.06,1218.87 1060.15,1224.91"/>
    </edge>
    <edge id=":115_10" function="internal">
        <lane id=":115_10_0" index="0" speed="3.65" length="4.67" shape="1042.33,1223.79 1043.66,1223.23 1044.55,1223.34 1045.00,1224.12 1044.99,1225.56"/>
    </edge>
    <edge id=":118_0" function="internal">
        <lane id=":118_0_0" index="0" speed="9.03" length="15.53" shape="658.46,1209.25 654.40,1210.08 650.82,1209.55 647.74,1207.66 645.15,1204.41"/>
        <lane id=":118_0_1" index="1" speed="7.71" length="11.09" shape="657.41,1206.23 654.50,1206.82 651.95,1206.44 649.75,1205.09 647.90,1202.77"/>
    </edge>
    <edge id=":118_2" function="internal">
        <lane id=":118_2_0" index="0" speed="3.65" length="1.44" shape="657.41,1206.23 656.01,1205.87"/>
    </edge>
    <edge id=":118_6" function="internal">
        <lane id=":118_6_0" index="0" speed="3.65" length="3.23" shape="656.01,1205.87 655.37,1205.25 655.48,1204.36 656.35,1203.21"/>
    </edge>
    <edge id=":118_3" function="internal">
        <lane id=":118_3_0" index="0" speed="3.93" length="2.22" shape="653.40,1199.50 653.77,1199.96 654.21,1200.23 654.72,1200.30 655.30,1200.19"/>
        <lane id=":118_3_1" index="1" speed="6.12" length="6.66" shape="650.65,1201.14 651.76,1202.53 653.08,1203.34 654.61,1203.56 656.35,1203.21"/>
    </edge>
    <edge id=":118_5" function="internal">
        <lane id=":118_5_0" index="0" speed="3.65" length="1.31" shape="650.65,1201.14 650.58,1202.44"/>
    </edge>
    <edge id=":118_7" function="internal">
        <lane id=":118_7_0" index="0" speed="3.65" length="3.36" shape="650.58,1202.44 650.58,1202.58 650.09,1203.33 649.20,1203.40 647.90,1202.77"/>
    </edge>
    <edge id=":1198_0" function="internal">
        <lane id=":1198_0_0" index="0" speed="13.89" length="0.85" shape="604.70,1825.87 604.63,1825.59 604.59,1825.39 604.55,1825.19 604.51,1824.90"/>
        <lane id=":1198_0_1" index="1" speed="13.89" length="0.85" shape="607.81,1825.13 607.76,1824.92 607.73,1824.78 607.71,1824.64 607.68,1824.43"/>
    </edge>
    <edge id=":1198_2" function="internal">
        <lane id=":1198_2_0" index="0" speed="13.89" length="0.28" shape="614.01,1823.50 614.01,1823.54 614.02,1823.57 614.02,1823.60 614.03,1823.64"/>
        <lane id=":1198_2_1" index="1" speed="13.89" length="0.28" shape="610.84,1823.97 610.86,1824.09 610.87,1824.18 610.89,1824.26 610.92,1824.38"/>
    </edge>
    <edge id=":12_0" function="internal">
        <lane id=":12_0_0" index="0" speed="13.89" length="29.81" shape="962.87,1367.76 957.91,1362.22 952.12,1357.59 945.71,1353.77 938.88,1350.67"/>
    </edge>
    <edge id=":12_1" function="internal">
        <lane id=":12_1_0" index="0" speed="13.89" length="33.97" shape="962.87,1367.76 958.34,1360.95 953.94,1353.09 949.98,1344.98 946.79,1337.43"/>
        <lane id=":12_1_1" index="1" speed="13.89" length="33.97" shape="965.44,1365.85 960.98,1359.16 956.72,1351.56 952.90,1343.71 949.78,1336.28"/>
    </edge>
    <edge id=":12_3" function="internal">
        <lane id=":12_3_0" index="0" speed="13.46" length="6.66" shape="965.44,1365.85 962.34,1359.95"/>
    </edge>
    <edge id=":12_4" function="internal">
        <lane id=":12_4_0" index="0" speed="9.05" length="4.01" shape="965.44,1365.85 963.83,1362.17"/>
    </edge>
    <edge id=":12_5" function="internal">
        <lane id=":12_5_0" index="0" speed="3.65" length="1.44" shape="965.44,1365.85 965.36,1364.41"/>
    </edge>
    <edge id=":12_30" function="internal">
        <lane id=":12_30_0" index="0" speed="13.46" length="24.40" shape="962.34,1359.95 961.98,1359.27 961.06,1352.26 962.68,1344.80 966.83,1336.90"/>
    </edge>
    <edge id=":12_31" function="internal">
        <lane id=":12_31_0" index="0" speed="9.05" length="21.39" shape="963.83,1362.17 962.74,1359.66 964.08,1354.61 968.72,1350.92 975.92,1348.84"/>
    </edge>
    <edge id=":12_32" function="internal">
        <lane id=":12_32_0" index="0" speed="3.65" length="3.23" shape="965.36,1364.41 965.77,1363.61 966.65,1363.46 968.00,1363.94"/>
    </edge>
    <edge id=":12_6" function="internal">
        <lane id=":12_6_0" index="0" speed="6.40" length="11.97" shape="976.85,1355.17 972.61,1356.16 970.15,1357.64 969.47,1359.59 970.57,1362.03"/>
    </edge>
    <edge id=":12_7" function="internal">
        <lane id=":12_7_0" index="0" speed="13.89" length="37.68" shape="976.85,1355.17 968.05,1355.60 957.64,1354.85 947.34,1353.13 938.88,1350.67"/>
        <lane id=":12_7_1" index="1" speed="13.89" length="37.68" shape="976.38,1352.00 967.84,1352.46 958.00,1351.78 948.26,1350.13 940.06,1347.69"/>
    </edge>
    <edge id=":12_9" function="internal">
        <lane id=":12_9_0" index="0" speed="13.24" length="9.80" shape="976.38,1352.00 967.42,1352.09 966.63,1351.82"/>
    </edge>
    <edge id=":12_10" function="internal">
        <lane id=":12_10_0" index="0" speed="8.22" length="4.65" shape="976.38,1352.00 971.76,1351.58"/>
    </edge>
    <edge id=":12_11" function="internal">
        <lane id=":12_11_0" index="0" speed="3.65" length="1.44" shape="976.38,1352.00 975.08,1351.39"/>
    </edge>
    <edge id=":12_33" function="internal">
        <lane id=":12_33_0" index="0" speed="13.24" length="23.98" shape="966.63,1351.82 960.00,1349.50 954.12,1344.23 949.78,1336.28"/>
    </edge>
    <edge id=":12_34" function="internal">
        <lane id=":12_34_0" index="0" speed="8.22" length="18.81" shape="971.76,1351.58 969.97,1351.41 965.86,1348.09 964.62,1342.95 966.83,1336.90"/>
    </edge>
    <edge id=":12_35" function="internal">
        <lane id=":12_35_0" index="0" speed="3.65" length="3.23" shape="975.08,1351.39 974.57,1350.65 974.85,1349.80 975.92,1348.84"/>
    </edge>
    <edge id=":12_12" function="internal">
        <lane id=":12_12_0" index="0" speed="5.50" length="9.60" shape="972.16,1340.45 970.78,1343.15 970.87,1344.92 972.43,1345.76 975.46,1345.67"/>
    </edge>
    <edge id=":12_13" function="internal">
        <lane id=":12_13_0" index="0" speed="11.68" length="23.16" shape="972.16,1340.45 968.93,1346.49 967.59,1352.09 968.14,1357.28 970.57,1362.03"/>
        <lane id=":12_13_1" index="1" speed="12.60" length="27.11" shape="969.49,1338.68 965.81,1345.64 964.33,1352.18 965.06,1358.27 968.00,1363.94"/>
    </edge>
    <edge id=":12_15" function="internal">
        <lane id=":12_15_0" index="0" speed="13.16" length="33.71" shape="969.49,1338.68 963.55,1345.38 956.67,1349.12 948.84,1349.89 940.06,1347.69"/>
    </edge>
    <edge id=":12_16" function="internal">
        <lane id=":12_16_0" index="0" speed="8.82" length="25.68" shape="969.49,1338.68 964.39,1343.62 958.82,1344.78 953.67,1342.29 949.78,1336.28"/>
    </edge>
    <edge id=":12_17" function="internal">
        <lane id=":12_17_0" index="0" speed="3.65" length="2.34" shape="969.49,1338.68 968.16,1339.23 967.27,1339.12"/>
    </edge>
    <edge id=":12_36" function="internal">
        <lane id=":12_36_0" index="0" speed="3.65" length="2.34" shape="967.27,1339.12 966.83,1338.34 966.83,1336.90"/>
    </edge>
    <edge id=":12_18" function="internal">
        <lane id=":12_18_0" index="0" speed="6.26" length="12.19" shape="955.75,1333.99 957.54,1337.33 959.53,1338.63 961.74,1337.90 964.17,1335.12"/>
    </edge>
    <edge id=":12_19" function="internal">
        <lane id=":12_19_0" index="0" speed="11.45" length="25.04" shape="955.75,1333.99 958.97,1339.89 963.33,1343.81 968.82,1345.73 975.46,1345.67"/>
    </edge>
    <edge id=":12_20" function="internal">
        <lane id=":12_20_0" index="0" speed="13.89" length="32.24" shape="955.75,1333.99 958.74,1341.18 962.27,1348.50 966.25,1355.58 970.57,1362.03"/>
        <lane id=":12_20_1" index="1" speed="13.89" length="32.24" shape="952.76,1335.14 955.82,1342.45 959.49,1350.03 963.61,1357.37 968.00,1363.94"/>
    </edge>
    <edge id=":12_22" function="internal">
        <lane id=":12_22_0" index="0" speed="8.20" length="2.73" shape="952.76,1335.14 953.11,1337.85"/>
    </edge>
    <edge id=":12_23" function="internal">
        <lane id=":12_23_0" index="0" speed="3.65" length="1.44" shape="952.76,1335.14 952.45,1336.54"/>
    </edge>
    <edge id=":12_37" function="internal">
        <lane id=":12_37_0" index="0" speed="8.20" length="20.75" shape="953.11,1337.85 953.58,1341.52 951.20,1346.27 946.43,1348.58 940.06,1347.69"/>
    </edge>
    <edge id=":12_38" function="internal">
        <lane id=":12_38_0" index="0" speed="3.65" length="3.23" shape="952.45,1336.54 951.85,1337.20 950.95,1337.12 949.78,1336.28"/>
    </edge>
    <edge id=":12_24" function="internal">
        <lane id=":12_24_0" index="0" speed="5.49" length="9.62" shape="942.42,1341.75 945.36,1342.54 947.07,1342.08 947.55,1340.38 946.79,1337.43"/>
    </edge>
    <edge id=":12_25" function="internal">