<?xml version="1.0" encoding="UTF-8"?>

<!-- generated on 2025-06-27 13:53:27 by Eclipse SUMO netedit Version 1.22.0
-->

<routes xmlns:xsi="http://www.w3.org/2001/XMLSchema-instance" xsi:noNamespaceSchemaLocation="http://sumo.dlr.de/xsd/routes_file.xsd">
    <!-- VTypes -->
    <vType id="car" length="5.00" maxSpeed="13.89" color="red" accel="1.0" decel="4.5" sigma="0.5"/>
    <!-- Vehicles, persons and containers (sorted by depart) -->
    <flow id="normal_-1005" type="car" begin="0.00" from="-1005" to="1005" end="1800.00" period="300.00"/>
    <flow id="normal_-1011" type="car" begin="0.00" from="-1011" to="-585" end="1800.00" period="300.00"/>
    <flow id="normal_-1027" type="car" begin="0.00" from="-1027" to="-517" end="1800.00" period="300.00"/>
    <flow id="normal_-1029" type="car" begin="0.00" from="-1029" to="1343" end="1800.00" period="300.00"/>
    <flow id="normal_-1033" type="car" begin="0.00" from="-1033" to="1343" end="1800.00" period="300.00"/>
    <flow id="normal_-1093" type="car" begin="0.00" from="-1093" to="1533" end="1800.00" period="300.00"/>
    <flow id="normal_-11" type="car" begin="0.00" from="-11" to="1342" end="1800.00" period="300.00"/>
    <flow id="normal_-116" type="car" begin="0.00" from="-116" to="-1363" end="1800.00" period="300.00"/>
    <flow id="normal_-117" type="car" begin="0.00" from="-117" to="-119" end="1800.00" period="300.00"/>
    <flow id="normal_-119" type="car" begin="0.00" from="-119" to="608" end="1800.00" period="300.00"/>
    <flow id="normal_-1199" type="car" begin="0.00" from="-1199" to="613" end="1800.00" period="300.00"/>
    <flow id="normal_-121" type="car" begin="0.00" from="-121" to="-612" end="1800.00" period="300.00"/>
    <flow id="normal_-123" type="car" begin="0.00" from="-123" to="-361" end="1800.00" period="300.00"/>
    <flow id="normal_-125" type="car" begin="0.00" from="-125" to="-119" end="1800.00" period="300.00"/>
    <flow id="normal_-126" type="car" begin="0.00" from="-126" to="-1027" end="1800.00" period="300.00"/>
    <flow id="normal_-128" type="car" begin="0.00" from="-128" to="-319" end="1800.00" period="300.00"/>
    <flow id="normal_-13" type="car" begin="0.00" from="-13" to="-138" end="1800.00" period="300.00"/>
    <flow id="normal_-1323" type="car" begin="0.00" from="-1323" to="1029" end="1800.00" period="300.00"/>
    <flow id="normal_-1342" type="car" begin="0.00" from="-1342" to="-1363" end="1800.00" period="300.00"/>
    <flow id="normal_-1343" type="car" begin="0.00" from="-1343" to="-570" end="1800.00" period="300.00"/>
    <flow id="normal_-1357" type="car" begin="0.00" from="-1357" to="-579" end="1800.00" period="300.00"/>
    <flow id="normal_-1359" type="car" begin="0.00" from="-1359" to="612" end="1800.00" period="300.00"/>
    <flow id="normal_-1363" type="car" begin="0.00" from="-1363" to="125" end="1800.00" period="300.00"/>
    <flow id="normal_-1373" type="car" begin="0.00" from="-1373" to="344" end="1800.00" period="300.00"/>
    <flow id="normal_-138" type="car" begin="0.00" from="-138" to="-613" end="1800.00" period="300.00"/>
    <flow id="normal_-1415" type="car" begin="0.00" from="-1415" to="-1441" end="1800.00" period="300.00"/>
    <flow id="normal_-1427" type="car" begin="0.00" from="-1427" to="338" end="1800.00" period="300.00"/>
    <flow id="normal_-1441" type="car" begin="0.00" from="-1441" to="1373" end="1800.00" period="300.00"/>
    <flow id="normal_-1447" type="car" begin="0.00" from="-1447" to="-348" end="1800.00" period="300.00"/>
    <flow id="normal_-1494" type="car" begin="0.00" from="-1494" to="-116" end="1800.00" period="300.00"/>
    <flow id="normal_-15" type="car" begin="0.00" from="-15" to="-880" end="1800.00" period="300.00"/>
    <flow id="normal_-1533" type="car" begin="0.00" from="-1533" to="-870" end="1800.00" period="300.00"/>
    <flow id="normal_-1535" type="car" begin="0.00" from="-1535" to="639" end="1800.00" period="300.00"/>
    <flow id="normal_-17" type="car" begin="0.00" from="-17" to="7" end="1800.00" period="300.00"/>
    <flow id="normal_-19" type="car" begin="0.00" from="-19" to="128" end="1800.00" period="300.00"/>
    <flow id="normal_-210" type="car" begin="0.00" from="-210" to="870" end="1800.00" period="300.00"/>
    <flow id="normal_-25" type="car" begin="0.00" from="-25" to="601" end="1800.00" period="300.00"/>
    <flow id="normal_-3" type="car" begin="0.00" from="-3" to="1343" end="1800.00" period="300.00"/>
    <flow id="normal_-313" type="car" begin="0.00" from="-313" to="-614" end="1800.00" period="300.00"/>
    <flow id="normal_-319" type="car" begin="0.00" from="-319" to="614" end="1800.00" period="300.00"/>
    <flow id="normal_-325" type="car" begin="0.00" from="-325" to="1029" end="1800.00" period="300.00"/>
    <flow id="normal_-326" type="car" begin="0.00" from="-326" to="612" end="1800.00" period="300.00"/>
    <flow id="normal_-330" type="car" begin="0.00" from="-330" to="-333" end="1800.00" period="300.00"/>
    <flow id="normal_-333" type="car" begin="0.00" from="-333" to="-579" end="1800.00" period="300.00"/>
    <flow id="normal_-336" type="car" begin="0.00" from="-336" to="-365" end="1800.00" period="300.00"/>
    <flow id="normal_-338" type="car" begin="0.00" from="-338" to="492" end="1800.00" period="300.00"/>
    <flow id="normal_-344" type="car" begin="0.00" from="-344" to="-623" end="1800.00" period="300.00"/>
    <flow id="normal_-348" type="car" begin="0.00" from="-348" to="-612" end="1800.00" period="300.00"/>
    <flow id="normal_-349" type="car" begin="0.00" from="-349" to="585" end="1800.00" period="300.00"/>
    <flow id="normal_-356" type="car" begin="0.00" from="-356" to="325" end="1800.00" period="300.00"/>
    <flow id="normal_-361" type="car" begin="0.00" from="-361" to="-613" end="1800.00" period="300.00"/>
    <flow id="normal_-365" type="car" begin="0.00" from="-365" to="505" end="1800.00" period="300.00"/>
    <flow id="normal_-379" type="car" begin="0.00" from="-379" to="383" end="1800.00" period="300.00"/>
    <flow id="normal_-38" type="car" begin="0.00" from="-38" to="121" end="1800.00" period="300.00"/>
    <flow id="normal_-381" type="car" begin="0.00" from="-381" to="-121" end="1800.00" period="300.00"/>
    <flow id="normal_-383" type="car" begin="0.00" from="-383" to="126" end="1800.00" period="300.00"/>
    <flow id="normal_-492" type="car" begin="0.00" from="-492" to="-612" end="1800.00" period="300.00"/>
    <flow id="normal_-504" type="car" begin="0.00" from="-504" to="-15" end="1800.00" period="300.00"/>
    <flow id="normal_-505" type="car" begin="0.00" from="-505" to="-210" end="1800.00" period="300.00"/>
    <flow id="normal_-517" type="car" begin="0.00" from="-517" to="-25" end="1800.00" period="300.00"/>
    <flow id="normal_-523" type="car" begin="0.00" from="-523" to="-116" end="1800.00" period="300.00"/>
    <flow id="normal_-535" type="car" begin="0.00" from="-535" to="882" end="1800.00" period="300.00"/>
    <flow id="normal_-570" type="car" begin="0.00" from="-570" to="116" end="1800.00" period="300.00"/>
    <flow id="normal_-577" type="car" begin="0.00" from="-577" to="734" end="1800.00" period="300.00"/>
    <flow id="normal_-579" type="car" begin="0.00" from="-579" to="-608" end="1800.00" period="300.00"/>
    <flow id="normal_-585" type="car" begin="0.00" from="-585" to="-11" end="1800.00" period="300.00"/>
    <flow id="normal_-588" type="car" begin="0.00" from="-588" to="1199" end="1800.00" period="300.00"/>
    <flow id="normal_-589" type="car" begin="0.00" from="-589" to="349" end="1800.00" period="300.00"/>
    <flow id="normal_-601" type="car" begin="0.00" from="-601" to="7" end="1800.00" period="300.00"/>
    <flow id="normal_-608" type="car" begin="0.00" from="-608" to="3" end="1800.00" period="300.00"/>
    <flow id="normal_-612" type="car" begin="0.00" from="-612" to="612" end="1800.00" period="300.00"/>
    <flow id="normal_-613" type="car" begin="0.00" from="-613" to="-589" end="1800.00" period="300.00"/>
    <flow id="normal_-614" type="car" begin="0.00" from="-614" to="-3" end="1800.00" period="300.00"/>
    <flow id="normal_-623" type="car" begin="0.00" from="-623" to="333" end="1800.00" period="300.00"/>
    <flow id="normal_-625" type="car" begin="0.00" from="-625" to="333" end="1800.00" period="300.00"/>
    <flow id="normal_-639" type="car" begin="0.00" from="-639" to="-1027" end="1800.00" period="300.00"/>
    <flow id="normal_-64" type="car" begin="0.00" from="-64" to="-330" end="1800.00" period="300.00"/>
    <flow id="normal_-679" type="car" begin="0.00" from="-679" to="-379" end="1800.00" period="300.00"/>
    <flow id="normal_-696" type="car" begin="0.00" from="-696" to="125" end="1800.00" period="300.00"/>
    <flow id="normal_-698" type="car" begin="0.00" from="-698" to="-1342" end="1800.00" period="300.00"/>
    <flow id="normal_-7" type="car" begin="0.00" from="-7" to="-1027" end="1800.00" period="300.00"/>
    <flow id="normal_-728" type="car" begin="0.00" from="-728" to="-589" end="1800.00" period="300.00"/>
    <flow id="normal_-730" type="car" begin="0.00" from="-730" to="1323" end="1800.00" period="300.00"/>
    <flow id="normal_-732" type="car" begin="0.00" from="-732" to="728" end="1800.00" period="300.00"/>
    <flow id="normal_-734" type="car" begin="0.00" from="-734" to="3" end="1800.00" period="300.00"/>
    <flow id="normal_-870" type="car" begin="0.00" from="-870" to="-1494" end="1800.00" period="300.00"/>
    <flow id="normal_-876" type="car" begin="0.00" from="-876" to="-505" end="1800.00" period="300.00"/>
    <flow id="normal_-880" type="car" begin="0.00" from="-880" to="38" end="1800.00" period="300.00"/>
    <flow id="normal_-882" type="car" begin="0.00" from="-882" to="-1441" end="1800.00" period="300.00"/>
    <flow id="normal_-9" type="car" begin="0.00" from="-9" to="-138" end="1800.00" period="300.00"/>
    <flow id="normal_1005" type="car" begin="0.00" from="1005" to="730" end="1800.00" period="300.00"/>
    <flow id="normal_1011" type="car" begin="0.00" from="1011" to="-338" end="1800.00" period="300.00"/>
    <flow id="normal_1027" type="car" begin="0.00" from="1027" to="13" end="1800.00" period="300.00"/>
    <flow id="normal_1029" type="car" begin="0.00" from="1029" to="-326" end="1800.00" period="300.00"/>
    <flow id="normal_1033" type="car" begin="0.00" from="1033" to="379" end="1800.00" period="300.00"/>
    <flow id="normal_1093" type="car" begin="0.00" from="1093" to="-344" end="1800.00" period="300.00"/>
    <flow id="normal_11" type="car" begin="0.00" from="11" to="1005" end="1800.00" period="300.00"/>
    <flow id="normal_116" type="car" begin="0.00" from="116" to="-1447" end="1800.00" period="300.00"/>
    <flow id="normal_117" type="car" begin="0.00" from="117" to="696" end="1800.00" period="300.00"/>
    <flow id="normal_119" type="car" begin="0.00" from="119" to="381" end="1800.00" period="300.00"/>
    <flow id="normal_1199" type="car" begin="0.00" from="1199" to="-38" end="1800.00" period="300.00"/>
    <flow id="normal_121" type="car" begin="0.00" from="121" to="-121" end="1800.00" period="300.00"/>
    <flow id="normal_123" type="car" begin="0.00" from="123" to="-1011" end="1800.00" period="300.00"/>
    <flow id="normal_125" type="car" begin="0.00" from="125" to="-1359" end="1800.00" period="300.00"/>
    <flow id="normal_126" type="car" begin="0.00" from="126" to="-1323" end="1800.00" period="300.00"/>
    <flow id="normal_128" type="car" begin="0.00" from="128" to="577" end="1800.00" period="300.00"/>
    <flow id="normal_13" type="car" begin="0.00" from="13" to="3" end="1800.00" period="300.00"/>
    <flow id="normal_1323" type="car" begin="0.00" from="1323" to="-535" end="1800.00" period="300.00"/>
    <flow id="normal_1342" type="car" begin="0.00" from="1342" to="-1533" end="1800.00" period="300.00"/>
    <flow id="normal_1343" type="car" begin="0.00" from="1343" to="-570" end="1800.00" period="300.00"/>
    <flow id="normal_1357" type="car" begin="0.00" from="1357" to="1373" end="1800.00" period="300.00"/>
    <flow id="normal_1359" type="car" begin="0.00" from="1359" to="-1427" end="1800.00" period="300.00"/>
    <flow id="normal_1363" type="car" begin="0.00" from="1363" to="570" end="1800.00" period="300.00"/>
    <flow id="normal_1373" type="car" begin="0.00" from="1373" to="313" end="1800.00" period="300.00"/>
    <flow id="normal_138" type="car" begin="0.00" from="138" to="-365" end="1800.00" period="300.00"/>
    <flow id="normal_1415" type="car" begin="0.00" from="1415" to="-356" end="1800.00" period="300.00"/>
    <flow id="normal_1427" type="car" begin="0.00" from="1427" to="882" end="1800.00" period="300.00"/>
    <flow id="normal_1441" type="car" begin="0.00" from="1441" to="128" end="1800.00" period="300.00"/>
    <flow id="normal_1447" type="car" begin="0.00" from="1447" to="325" end="1800.00" period="300.00"/>
    <flow id="normal_1494" type="car" begin="0.00" from="1494" to="696" end="1800.00" period="300.00"/>
    <flow id="normal_15" type="car" begin="0.00" from="15" to="-1093" end="1800.00" period="300.00"/>
    <flow id="normal_1533" type="car" begin="0.00" from="1533" to="601" end="1800.00" period="300.00"/>
    <flow id="normal_1535" type="car" begin="0.00" from="1535" to="-1427" end="1800.00" period="300.00"/>
    <flow id="normal_17" type="car" begin="0.00" from="17" to="570" end="1800.00" period="300.00"/>
    <flow id="normal_19" type="car" begin="0.00" from="19" to="-1533" end="1800.00" period="300.00"/>
    <flow id="normal_210" type="car" begin="0.00" from="210" to="7" end="1800.00" period="300.00"/>
    <flow id="normal_25" type="car" begin="0.00" from="25" to="588" end="1800.00" period="300.00"/>
    <flow id="normal_3" type="car" begin="0.00" from="3" to="-732" end="1800.00" period="300.00"/>
    <flow id="normal_313" type="car" begin="0.00" from="313" to="876" end="1800.00" period="300.00"/>
    <flow id="normal_319" type="car" begin="0.00" from="319" to="732" end="1800.00" period="300.00"/>
    <flow id="normal_325" type="car" begin="0.00" from="325" to="-613" end="1800.00" period="300.00"/>
    <flow id="normal_326" type="car" begin="0.00" from="326" to="577" end="1800.00" period="300.00"/>
    <flow id="normal_330" type="car" begin="0.00" from="330" to="-612" end="1800.00" period="300.00"/>
    <flow id="normal_333" type="car" begin="0.00" from="333" to="383" end="1800.00" period="300.00"/>
    <flow id="normal_336" type="car" begin="0.00" from="336" to="349" end="1800.00" period="300.00"/>
    <flow id="normal_338" type="car" begin="0.00" from="338" to="-17" end="1800.00" period="300.00"/>
    <flow id="normal_344" type="car" begin="0.00" from="344" to="1093" end="1800.00" period="300.00"/>
    <flow id="normal_348" type="car" begin="0.00" from="348" to="-1427" end="1800.00" period="300.00"/>
    <flow id="normal_349" type="car" begin="0.00" from="349" to="608" end="1800.00" period="300.00"/>
    <flow id="normal_356" type="car" begin="0.00" from="356" to="579" end="1800.00" period="300.00"/>
    <flow id="normal_361" type="car" begin="0.00" from="361" to="-880" end="1800.00" period="300.00"/>
    <flow id="normal_365" type="car" begin="0.00" from="365" to="-210" end="1800.00" period="300.00"/>
    <flow id="normal_379" type="car" begin="0.00" from="379" to="-361" end="1800.00" period="300.00"/>
    <flow id="normal_38" type="car" begin="0.00" from="38" to="121" end="1800.00" period="300.00"/>
    <flow id="normal_381" type="car" begin="0.00" from="381" to="1005" end="1800.00" period="300.00"/>
    <flow id="normal_383" type="car" begin="0.00" from="383" to="-577" end="1800.00" period="300.00"/>
    <flow id="normal_492" type="car" begin="0.00" from="492" to="-570" end="1800.00" period="300.00"/>
    <flow id="normal_504" type="car" begin="0.00" from="504" to="348" end="1800.00" period="300.00"/>
    <flow id="normal_505" type="car" begin="0.00" from="505" to="-613" end="1800.00" period="300.00"/>
    <flow id="normal_517" type="car" begin="0.00" from="517" to="-313" end="1800.00" period="300.00"/>
    <flow id="normal_523" type="car" begin="0.00" from="523" to="734" end="1800.00" period="300.00"/>
    <flow id="normal_535" type="car" begin="0.00" from="535" to="319" end="1800.00" period="300.00"/>
    <flow id="normal_570" type="car" begin="0.00" from="570" to="123" end="1800.00" period="300.00"/>
    <flow id="normal_577" type="car" begin="0.00" from="577" to="-128" end="1800.00" period="300.00"/>
    <flow id="normal_579" type="car" begin="0.00" from="579" to="608" end="1800.00" period="300.00"/>
    <flow id="normal_585" type="car" begin="0.00" from="585" to="-338" end="1800.00" period="300.00"/>
    <flow id="normal_588" type="car" begin="0.00" from="588" to="-505" end="1800.00" period="300.00"/>
    <flow id="normal_589" type="car" begin="0.00" from="589" to="-11" end="1800.00" period="300.00"/>
    <flow id="normal_601" type="car" begin="0.00" from="601" to="125" end="1800.00" period="300.00"/>
    <flow id="normal_608" type="car" begin="0.00" from="608" to="-19" end="1800.00" period="300.00"/>
    <flow id="normal_612" type="car" begin="0.00" from="612" to="381" end="1800.00" period="300.00"/>
    <flow id="normal_613" type="car" begin="0.00" from="613" to="-1093" end="1800.00" period="300.00"/>
    <flow id="normal_614" type="car" begin="0.00" from="614" to="-880" end="1800.00" period="300.00"/>
    <flow id="normal_623" type="car" begin="0.00" from="623" to="-326" end="1800.00" period="300.00"/>
    <flow id="normal_625" type="car" begin="0.00" from="625" to="589" end="1800.00" period="300.00"/>
    <flow id="normal_639" type="car" begin="0.00" from="639" to="504" end="1800.00" period="300.00"/>
    <flow id="normal_64" type="car" begin="0.00" from="64" to="1363" end="1800.00" period="300.00"/>
    <flow id="normal_679" type="car" begin="0.00" from="679" to="577" end="1800.00" period="300.00"/>
    <flow id="normal_696" type="car" begin="0.00" from="696" to="-1323" end="1800.00" period="300.00"/>
    <flow id="normal_698" type="car" begin="0.00" from="698" to="-492" end="1800.00" period="300.00"/>
    <flow id="normal_7" type="car" begin="0.00" from="7" to="-730" end="1800.00" period="300.00"/>
    <flow id="normal_728" type="car" begin="0.00" from="728" to="325" end="1800.00" period="300.00"/>
    <flow id="normal_730" type="car" begin="0.00" from="730" to="-1359" end="1800.00" period="300.00"/>
    <flow id="normal_732" type="car" begin="0.00" from="732" to="-11" end="1800.00" period="300.00"/>
    <flow id="normal_734" type="car" begin="0.00" from="734" to="-696" end="1800.00" period="300.00"/>
    <flow id="normal_870" type="car" begin="0.00" from="870" to="64" end="1800.00" period="300.00"/>
    <flow id="normal_876" type="car" begin="0.00" from="876" to="882" end="1800.00" period="300.00"/>
    <flow id="normal_880" type="car" begin="0.00" from="880" to="1005" end="1800.00" period="300.00"/>
    <flow id="normal_882" type="car" begin="0.00" from="882" to="523" end="1800.00" period="300.00"/>
    <flow id="normal_9" type="car" begin="0.00" from="9" to="1033" end="1800.00" period="300.00"/>
    <flow id="congested_-1005" type="car" begin="1800.00" from="-1005" to="1373" end="3600.00" period="30.00"/>
    <flow id="congested_-1011" type="car" begin="1800.00" from="-1011" to="-338" end="3600.00" period="30.00"/>
    <flow id="congested_-1027" type="car" begin="1800.00" from="-1027" to="-1005" end="3600.00" period="30.00"/>
    <flow id="congested_-1029" type="car" begin="1800.00" from="-1029" to="1357" end="3600.00" period="30.00"/>
    <flow id="congested_-1033" type="car" begin="1800.00" from="-1033" to="-344" end="3600.00" period="30.00"/>
    <flow id="congested_-1093" type="car" begin="1800.00" from="-1093" to="-1447" end="3600.00" period="30.00"/>
    <flow id="congested_-11" type="car" begin="1800.00" from="-11" to="-1093" end="3600.00" period="30.00"/>
    <flow id="congested_-116" type="car" begin="1800.00" from="-116" to="1373" end="3600.00" period="30.00"/>
    <flow id="congested_-117" type="car" begin="1800.00" from="-117" to="-383" end="3600.00" period="30.00"/>
    <flow id="congested_-119" type="car" begin="1800.00" from="-119" to="-330" end="3600.00" period="30.00"/>
    <flow id="congested_-1199" type="car" begin="1800.00" from="-1199" to="126" end="3600.00" period="30.00"/>
    <flow id="congested_-121" type="car" begin="1800.00" from="-121" to="-9" end="3600.00" period="30.00"/>
    <flow id="congested_-123" type="car" begin="1800.00" from="-123" to="-348" end="3600.00" period="30.00"/>
    <flow id="congested_-125" type="car" begin="1800.00" from="-125" to="1343" end="3600.00" period="30.00"/>
    <flow id="congested_-126" type="car" begin="1800.00" from="-126" to="-336" end="3600.00" period="30.00"/>
    <flow id="congested_-128" type="car" begin="1800.00" from="-128" to="-325" end="3600.00" period="30.00"/>
    <flow id="congested_-13" type="car" begin="1800.00" from="-13" to="123" end="3600.00" period="30.00"/>
    <flow id="congested_-1323" type="car" begin="1800.00" from="-1323" to="728" end="3600.00" period="30.00"/>
    <flow id="congested_-1342" type="car" begin="1800.00" from="-1342" to="-313" end="3600.00" period="30.00"/>
    <flow id="congested_-1343" type="car" begin="1800.00" from="-1343" to="730" end="3600.00" period="30.00"/>
    <flow id="congested_-1357" type="car" begin="1800.00" from="-1357" to="-1005" end="3600.00" period="30.00"/>
    <flow id="congested_-1359" type="car" begin="1800.00" from="-1359" to="1005" end="3600.00" period="30.00"/>
    <flow id="congested_-1363" type="car" begin="1800.00" from="-1363" to="3" end="3600.00" period="30.00"/>
    <flow id="congested_-1373" type="car" begin="1800.00" from="-1373" to="-588" end="3600.00" period="30.00"/>
    <flow id="congested_-138" type="car" begin="1800.00" from="-138" to="504" end="3600.00" period="30.00"/>
    <flow id="congested_-1415" type="car" begin="1800.00" from="-1415" to="-880" end="3600.00" period="30.00"/>
    <flow id="congested_-1427" type="car" begin="1800.00" from="-1427" to="-882" end="3600.00" period="30.00"/>
    <flow id="congested_-1441" type="car" begin="1800.00" from="-1441" to="3" end="3600.00" period="30.00"/>
    <flow id="congested_-1447" type="car" begin="1800.00" from="-1447" to="-210" end="3600.00" period="30.00"/>
    <flow id="congested_-1494" type="car" begin="1800.00" from="-1494" to="379" end="3600.00" period="30.00"/>
    <flow id="congested_-15" type="car" begin="1800.00" from="-15" to="-365" end="3600.00" period="30.00"/>
    <flow id="congested_-1533" type="car" begin="1800.00" from="-1533" to="-1011" end="3600.00" period="30.00"/>
    <flow id="congested_-1535" type="car" begin="1800.00" from="-1535" to="880" end="3600.00" period="30.00"/>
    <flow id="congested_-17" type="car" begin="1800.00" from="-17" to="-15" end="3600.00" period="30.00"/>
    <flow id="congested_-19" type="car" begin="1800.00" from="-19" to="1033" end="3600.00" period="30.00"/>
    <flow id="congested_-210" type="car" begin="1800.00" from="-210" to="734" end="3600.00" period="30.00"/>
    <flow id="congested_-25" type="car" begin="1800.00" from="-25" to="123" end="3600.00" period="30.00"/>
    <flow id="congested_-3" type="car" begin="1800.00" from="-3" to="679" end="3600.00" period="30.00"/>
    <flow id="congested_-313" type="car" begin="1800.00" from="-313" to="-19" end="3600.00" period="30.00"/>
    <flow id="congested_-319" type="car" begin="1800.00" from="-319" to="614" end="3600.00" period="30.00"/>
    <flow id="congested_-325" type="car" begin="1800.00" from="-325" to="119" end="3600.00" period="30.00"/>
    <flow id="congested_-326" type="car" begin="1800.00" from="-326" to="-625" end="3600.00" period="30.00"/>
    <flow id="congested_-330" type="car" begin="1800.00" from="-330" to="-730" end="3600.00" period="30.00"/>
    <flow id="congested_-333" type="car" begin="1800.00" from="-333" to="625" end="3600.00" period="30.00"/>
    <flow id="congested_-336" type="car" begin="1800.00" from="-336" to="-119" end="3600.00" period="30.00"/>
    <flow id="congested_-338" type="car" begin="1800.00" from="-338" to="-1033" end="3600.00" period="30.00"/>
    <flow id="congested_-344" type="car" begin="1800.00" from="-344" to="381" end="3600.00" period="30.00"/>
    <flow id="congested_-348" type="car" begin="1800.00" from="-348" to="880" end="3600.00" period="30.00"/>
    <flow id="congested_-349" type="car" begin="1800.00" from="-349" to="-589" end="3600.00" period="30.00"/>
    <flow id="congested_-356" type="car" begin="1800.00" from="-356" to="-11" end="3600.00" period="30.00"/>
    <flow id="congested_-361" type="car" begin="1800.00" from="-361" to="338" end="3600.00" period="30.00"/>
    <flow id="congested_-365" type="car" begin="1800.00" from="-365" to="1199" end="3600.00" period="30.00"/>
    <flow id="congested_-379" type="car" begin="1800.00" from="-379" to="577" end="3600.00" period="30.00"/>
    <flow id="congested_-38" type="car" begin="1800.00" from="-38" to="-639" end="3600.00" period="30.00"/>
    <flow id="congested_-381" type="car" begin="1800.00" from="-381" to="-13" end="3600.00" period="30.00"/>
    <flow id="congested_-383" type="car" begin="1800.00" from="-383" to="523" end="3600.00" period="30.00"/>
    <flow id="congested_-492" type="car" begin="1800.00" from="-492" to="-38" end="3600.00" period="30.00"/>
    <flow id="congested_-504" type="car" begin="1800.00" from="-504" to="-1199" end="3600.00" period="30.00"/>
    <flow id="congested_-505" type="car" begin="1800.00" from="-505" to="589" end="3600.00" period="30.00"/>
    <flow id="congested_-517" type="car" begin="1800.00" from="-517" to="-1363" end="3600.00" period="30.00"/>
    <flow id="congested_-523" type="car" begin="1800.00" from="-523" to="505" end="3600.00" period="30.00"/>
    <flow id="congested_-535" type="car" begin="1800.00" from="-535" to="1343" end="3600.00" period="30.00"/>
    <flow id="congested_-570" type="car" begin="1800.00" from="-570" to="-732" end="3600.00" period="30.00"/>
    <flow id="congested_-577" type="car" begin="1800.00" from="-577" to="-732" end="3600.00" period="30.00"/>
    <flow id="congested_-579" type="car" begin="1800.00" from="-579" to="126" end="3600.00" period="30.00"/>
    <flow id="congested_-585" type="car" begin="1800.00" from="-585" to="128" end="3600.00" period="30.00"/>
    <flow id="congested_-588" type="car" begin="1800.00" from="-588" to="121" end="3600.00" period="30.00"/>
    <flow id="congested_-589" type="car" begin="1800.00" from="-589" to="-579" end="3600.00" period="30.00"/>
    <flow id="congested_-601" type="car" begin="1800.00" from="-601" to="-870" end="3600.00" period="30.00"/>
    <flow id="congested_-608" type="car" begin="1800.00" from="-608" to="579" end="3600.00" period="30.00"/>
    <flow id="congested_-612" type="car" begin="1800.00" from="-612" to="-1447" end="3600.00" period="30.00"/>
    <flow id="congested_-613" type="car" begin="1800.00" from="-613" to="577" end="3600.00" period="30.00"/>
    <flow id="congested_-614" type="car" begin="1800.00" from="-614" to="1033" end="3600.00" period="30.00"/>
    <flow id="congested_-623" type="car" begin="1800.00" from="-623" to="-1441" end="3600.00" period="30.00"/>
    <flow id="congested_-625" type="car" begin="1800.00" from="-625" to="-365" end="3600.00" period="30.00"/>
    <flow id="congested_-639" type="car" begin="1800.00" from="-639" to="492" end="3600.00" period="30.00"/>
    <flow id="congested_-64" type="car" begin="1800.00" from="-64" to="19" end="3600.00" period="30.00"/>
    <flow id="congested_-679" type="car" begin="1800.00" from="-679" to="-1093" end="3600.00" period="30.00"/>
    <flow id="congested_-696" type="car" begin="1800.00" from="-696" to="365" end="3600.00" period="30.00"/>
    <flow id="congested_-698" type="car" begin="1800.00" from="-698" to="880" end="3600.00" period="30.00"/>
    <flow id="congested_-7" type="car" begin="1800.00" from="-7" to="-1323" end="3600.00" period="30.00"/>
    <flow id="congested_-728" type="car" begin="1800.00" from="-728" to="333" end="3600.00" period="30.00"/>
    <flow id="congested_-730" type="car" begin="1800.00" from="-730" to="-1427" end="3600.00" period="30.00"/>
    <flow id="congested_-732" type="car" begin="1800.00" from="-732" to="-535" end="3600.00" period="30.00"/>
    <flow id="congested_-734" type="car" begin="1800.00" from="-734" to="361" end="3600.00" period="30.00"/>
    <flow id="congested_-870" type="car" begin="1800.00" from="-870" to="119" end="3600.00" period="30.00"/>
    <flow id="congested_-876" type="car" begin="1800.00" from="-876" to="728" end="3600.00" period="30.00"/>
    <flow id="congested_-880" type="car" begin="1800.00" from="-880" to="-361" end="3600.00" period="30.00"/>
    <flow id="congested_-882" type="car" begin="1800.00" from="-882" to="-117" end="3600.00" period="30.00"/>
    <flow id="congested_-9" type="car" begin="1800.00" from="-9" to="-698" end="3600.00" period="30.00"/>
    <flow id="congested_1005" type="car" begin="1800.00" from="1005" to="-1357" end="3600.00" period="30.00"/>
    <flow id="congested_1011" type="car" begin="1800.00" from="1011" to="870" end="3600.00" period="30.00"/>
    <flow id="congested_1027" type="car" begin="1800.00" from="1027" to="-876" end="3600.00" period="30.00"/>
    <flow id="congested_1029" type="car" begin="1800.00" from="1029" to="1533" end="3600.00" period="30.00"/>
    <flow id="congested_1033" type="car" begin="1800.00" from="1033" to="1323" end="3600.00" period="30.00"/>
    <flow id="congested_1093" type="car" begin="1800.00" from="1093" to="-361" end="3600.00" period="30.00"/>
    <flow id="congested_11" type="car" begin="1800.00" from="11" to="-535" end="3600.00" period="30.00"/>
    <flow id="congested_116" type="car" begin="1800.00" from="116" to="361" end="3600.00" period="30.00"/>
    <flow id="congested_117" type="car" begin="1800.00" from="117" to="-1363" end="3600.00" period="30.00"/>