<routes>
  <vType id="car" accel="1.0" decel="4.5" sigma="0.5" length="5" maxSpeed="13.89" color="1,0,0"/>  <flow id="normal_-1005" type="car" from="-1005" to="1005" begin="0" end="1800" period="300" />
  <flow id="normal_-1011" type="car" from="-1011" to="-585" begin="0" end="1800" period="300" />
  <flow id="normal_-1027" type="car" from="-1027" to="-517" begin="0" end="1800" period="300" />
  <flow id="normal_-1029" type="car" from="-1029" to="1343" begin="0" end="1800" period="300" />
  <flow id="normal_-1033" type="car" from="-1033" to="1343" begin="0" end="1800" period="300" />
  <flow id="normal_-1093" type="car" from="-1093" to="1533" begin="0" end="1800" period="300" />
  <flow id="normal_-11" type="car" from="-11" to="1342" begin="0" end="1800" period="300" />
  <flow id="normal_-116" type="car" from="-116" to="-1363" begin="0" end="1800" period="300" />
  <flow id="normal_-117" type="car" from="-117" to="-119" begin="0" end="1800" period="300" />
  <flow id="normal_-119" type="car" from="-119" to="608" begin="0" end="1800" period="300" />
  <flow id="normal_-1199" type="car" from="-1199" to="613" begin="0" end="1800" period="300" />
  <flow id="normal_-121" type="car" from="-121" to="-612" begin="0" end="1800" period="300" />
  <flow id="normal_-123" type="car" from="-123" to="-361" begin="0" end="1800" period="300" />
  <flow id="normal_-125" type="car" from="-125" to="-119" begin="0" end="1800" period="300" />
  <flow id="normal_-126" type="car" from="-126" to="-1027" begin="0" end="1800" period="300" />
  <flow id="normal_-128" type="car" from="-128" to="-319" begin="0" end="1800" period="300" />
  <flow id="normal_-13" type="car" from="-13" to="-138" begin="0" end="1800" period="300" />
  <flow id="normal_-1323" type="car" from="-1323" to="1029" begin="0" end="1800" period="300" />
  <flow id="normal_-1342" type="car" from="-1342" to="-1363" begin="0" end="1800" period="300" />
  <flow id="normal_-1343" type="car" from="-1343" to="-570" begin="0" end="1800" period="300" />
  <flow id="normal_-1357" type="car" from="-1357" to="-579" begin="0" end="1800" period="300" />
  <flow id="normal_-1359" type="car" from="-1359" to="612" begin="0" end="1800" period="300" />
  <flow id="normal_-1363" type="car" from="-1363" to="125" begin="0" end="1800" period="300" />
  <flow id="normal_-1373" type="car" from="-1373" to="344" begin="0" end="1800" period="300" />
  <flow id="normal_-138" type="car" from="-138" to="-613" begin="0" end="1800" period="300" />
  <flow id="normal_-1415" type="car" from="-1415" to="-1441" begin="0" end="1800" period="300" />
  <flow id="normal_-1427" type="car" from="-1427" to="338" begin="0" end="1800" period="300" />
  <flow id="normal_-1441" type="car" from="-1441" to="1373" begin="0" end="1800" period="300" />
  <flow id="normal_-1447" type="car" from="-1447" to="-348" begin="0" end="1800" period="300" />
  <flow id="normal_-1494" type="car" from="-1494" to="-116" begin="0" end="1800" period="300" />
  <flow id="normal_-15" type="car" from="-15" to="-880" begin="0" end="1800" period="300" />
  <flow id="normal_-1533" type="car" from="-1533" to="-870" begin="0" end="1800" period="300" />
  <flow id="normal_-1535" type="car" from="-1535" to="639" begin="0" end="1800" period="300" />
  <flow id="normal_-17" type="car" from="-17" to="7" begin="0" end="1800" period="300" />
  <flow id="normal_-19" type="car" from="-19" to="128" begin="0" end="1800" period="300" />
  <flow id="normal_-210" type="car" from="-210" to="870" begin="0" end="1800" period="300" />
  <flow id="normal_-25" type="car" from="-25" to="601" begin="0" end="1800" period="300" />
  <flow id="normal_-3" type="car" from="-3" to="1343" begin="0" end="1800" period="300" />
  <flow id="normal_-313" type="car" from="-313" to="-614" begin="0" end="1800" period="300" />
  <flow id="normal_-319" type="car" from="-319" to="614" begin="0" end="1800" period="300" />
  <flow id="normal_-325" type="car" from="-325" to="1029" begin="0" end="1800" period="300" />
  <flow id="normal_-326" type="car" from="-326" to="612" begin="0" end="1800" period="300" />
  <flow id="normal_-330" type="car" from="-330" to="-333" begin="0" end="1800" period="300" />
  <flow id="normal_-333" type="car" from="-333" to="-579" begin="0" end="1800" period="300" />
  <flow id="normal_-336" type="car" from="-336" to="-365" begin="0" end="1800" period="300" />
  <flow id="normal_-338" type="car" from="-338" to="492" begin="0" end="1800" period="300" />
  <flow id="normal_-344" type="car" from="-344" to="-623" begin="0" end="1800" period="300" />
  <flow id="normal_-348" type="car" from="-348" to="-612" begin="0" end="1800" period="300" />
  <flow id="normal_-349" type="car" from="-349" to="585" begin="0" end="1800" period="300" />
  <flow id="normal_-356" type="car" from="-356" to="325" begin="0" end="1800" period="300" />
  <flow id="normal_-361" type="car" from="-361" to="-613" begin="0" end="1800" period="300" />
  <flow id="normal_-365" type="car" from="-365" to="505" begin="0" end="1800" period="300" />
  <flow id="normal_-379" type="car" from="-379" to="383" begin="0" end="1800" period="300" />
  <flow id="normal_-38" type="car" from="-38" to="121" begin="0" end="1800" period="300" />
  <flow id="normal_-381" type="car" from="-381" to="-121" begin="0" end="1800" period="300" />
  <flow id="normal_-383" type="car" from="-383" to="126" begin="0" end="1800" period="300" />
  <flow id="normal_-492" type="car" from="-492" to="-612" begin="0" end="1800" period="300" />
  <flow id="normal_-504" type="car" from="-504" to="-15" begin="0" end="1800" period="300" />
  <flow id="normal_-505" type="car" from="-505" to="-210" begin="0" end="1800" period="300" />
  <flow id="normal_-517" type="car" from="-517" to="-25" begin="0" end="1800" period="300" />
  <flow id="normal_-523" type="car" from="-523" to="-116" begin="0" end="1800" period="300" />
  <flow id="normal_-535" type="car" from="-535" to="882" begin="0" end="1800" period="300" />
  <flow id="normal_-570" type="car" from="-570" to="116" begin="0" end="1800" period="300" />
  <flow id="normal_-577" type="car" from="-577" to="734" begin="0" end="1800" period="300" />
  <flow id="normal_-579" type="car" from="-579" to="-608" begin="0" end="1800" period="300" />
  <flow id="normal_-585" type="car" from="-585" to="-11" begin="0" end="1800" period="300" />
  <flow id="normal_-588" type="car" from="-588" to="1199" begin="0" end="1800" period="300" />
  <flow id="normal_-589" type="car" from="-589" to="349" begin="0" end="1800" period="300" />
  <flow id="normal_-601" type="car" from="-601" to="7" begin="0" end="1800" period="300" />
  <flow id="normal_-608" type="car" from="-608" to="3" begin="0" end="1800" period="300" />
  <flow id="normal_-612" type="car" from="-612" to="612" begin="0" end="1800" period="300" />
  <flow id="normal_-613" type="car" from="-613" to="-589" begin="0" end="1800" period="300" />
  <flow id="normal_-614" type="car" from="-614" to="-3" begin="0" end="1800" period="300" />
  <flow id="normal_-623" type="car" from="-623" to="333" begin="0" end="1800" period="300" />
  <flow id="normal_-625" type="car" from="-625" to="333" begin="0" end="1800" period="300" />
  <flow id="normal_-639" type="car" from="-639" to="-1027" begin="0" end="1800" period="300" />
  <flow id="normal_-64" type="car" from="-64" to="-330" begin="0" end="1800" period="300" />
  <flow id="normal_-679" type="car" from="-679" to="-379" begin="0" end="1800" period="300" />
  <flow id="normal_-696" type="car" from="-696" to="125" begin="0" end="1800" period="300" />
  <flow id="normal_-698" type="car" from="-698" to="-1342" begin="0" end="1800" period="300" />
  <flow id="normal_-7" type="car" from="-7" to="-1027" begin="0" end="1800" period="300" />
  <flow id="normal_-728" type="car" from="-728" to="-589" begin="0" end="1800" period="300" />
  <flow id="normal_-730" type="car" from="-730" to="1323" begin="0" end="1800" period="300" />
  <flow id="normal_-732" type="car" from="-732" to="728" begin="0" end="1800" period="300" />
  <flow id="normal_-734" type="car" from="-734" to="3" begin="0" end="1800" period="300" />
  <flow id="normal_-870" type="car" from="-870" to="-1494" begin="0" end="1800" period="300" />
  <flow id="normal_-876" type="car" from="-876" to="-505" begin="0" end="1800" period="300" />
  <flow id="normal_-880" type="car" from="-880" to="38" begin="0" end="1800" period="300" />
  <flow id="normal_-882" type="car" from="-882" to="-1441" begin="0" end="1800" period="300" />
  <flow id="normal_-9" type="car" from="-9" to="-138" begin="0" end="1800" period="300" />
  <flow id="normal_1005" type="car" from="1005" to="730" begin="0" end="1800" period="300" />
  <flow id="normal_1011" type="car" from="1011" to="-338" begin="0" end="1800" period="300" />
  <flow id="normal_1027" type="car" from="1027" to="13" begin="0" end="1800" period="300" />
  <flow id="normal_1029" type="car" from="1029" to="-326" begin="0" end="1800" period="300" />
  <flow id="normal_1033" type="car" from="1033" to="379" begin="0" end="1800" period="300" />
  <flow id="normal_1093" type="car" from="1093" to="-344" begin="0" end="1800" period="300" />
  <flow id="normal_11" type="car" from="11" to="1005" begin="0" end="1800" period="300" />
  <flow id="normal_116" type="car" from="116" to="-1447" begin="0" end="1800" period="300" />
  <flow id="normal_117" type="car" from="117" to="696" begin="0" end="1800" period="300" />
  <flow id="normal_119" type="car" from="119" to="381" begin="0" end="1800" period="300" />
  <flow id="normal_1199" type="car" from="1199" to="-38" begin="0" end="1800" period="300" />
  <flow id="normal_121" type="car" from="121" to="-121" begin="0" end="1800" period="300" />
  <flow id="normal_123" type="car" from="123" to="-1011" begin="0" end="1800" period="300" />
  <flow id="normal_125" type="car" from="125" to="-1359" begin="0" end="1800" period="300" />
  <flow id="normal_126" type="car" from="126" to="-1323" begin="0" end="1800" period="300" />
  <flow id="normal_128" type="car" from="128" to="577" begin="0" end="1800" period="300" />
  <flow id="normal_13" type="car" from="13" to="3" begin="0" end="1800" period="300" />
  <flow id="normal_1323" type="car" from="1323" to="-535" begin="0" end="1800" period="300" />
  <flow id="normal_1342" type="car" from="1342" to="-1533" begin="0" end="1800" period="300" />
  <flow id="normal_1343" type="car" from="1343" to="-570" begin="0" end="1800" period="300" />
  <flow id="normal_1357" type="car" from="1357" to="1373" begin="0" end="1800" period="300" />
  <flow id="normal_1359" type="car" from="1359" to="-1427" begin="0" end="1800" period="300" />
  <flow id="normal_1363" type="car" from="1363" to="570" begin="0" end="1800" period="300" />
  <flow id="normal_1373" type="car" from="1373" to="313" begin="0" end="1800" period="300" />
  <flow id="normal_138" type="car" from="138" to="-365" begin="0" end="1800" period="300" />
  <flow id="normal_1415" type="car" from="1415" to="-356" begin="0" end="1800" period="300" />
  <flow id="normal_1427" type="car" from="1427" to="882" begin="0" end="1800" period="300" />
  <flow id="normal_1441" type="car" from="1441" to="128" begin="0" end="1800" period="300" />
  <flow id="normal_1447" type="car" from="1447" to="325" begin="0" end="1800" period="300" />
  <flow id="normal_1494" type="car" from="1494" to="696" begin="0" end="1800" period="300" />
  <flow id="normal_15" type="car" from="15" to="-1093" begin="0" end="1800" period="300" />
  <flow id="normal_1533" type="car" from="1533" to="601" begin="0" end="1800" period="300" />
  <flow id="normal_1535" type="car" from="1535" to="-1427" begin="0" end="1800" period="300" />
  <flow id="normal_17" type="car" from="17" to="570" begin="0" end="1800" period="300" />
  <flow id="normal_19" type="car" from="19" to="-1533" begin="0" end="1800" period="300" />
  <flow id="normal_210" type="car" from="210" to="7" begin="0" end="1800" period="300" />
  <flow id="normal_25" type="car" from="25" to="588" begin="0" end="1800" period="300" />
  <flow id="normal_3" type="car" from="3" to="-732" begin="0" end="1800" period="300" />
  <flow id="normal_313" type="car" from="313" to="876" begin="0" end="1800" period="300" />
  <flow id="normal_319" type="car" from="319" to="732" begin="0" end="1800" period="300" />
  <flow id="normal_325" type="car" from="325" to="-613" begin="0" end="1800" period="300" />
  <flow id="normal_326" type="car" from="326" to="577" begin="0" end="1800" period="300" />
  <flow id="normal_330" type="car" from="330" to="-612" begin="0" end="1800" period="300" />
  <flow id="normal_333" type="car" from="333" to="383" begin="0" end="1800" period="300" />
  <flow id="normal_336" type="car" from="336" to="349" begin="0" end="1800" period="300" />
  <flow id="normal_338" type="car" from="338" to="-17" begin="0" end="1800" period="300" />
  <flow id="normal_344" type="car" from="344" to="1093" begin="0" end="1800" period="300" />
  <flow id="normal_348" type="car" from="348" to="-1427" begin="0" end="1800" period="300" />
  <flow id="normal_349" type="car" from="349" to="608" begin="0" end="1800" period="300" />
  <flow id="normal_356" type="car" from="356" to="579" begin="0" end="1800" period="300" />
  <flow id="normal_361" type="car" from="361" to="-880" begin="0" end="1800" period="300" />
  <flow id="normal_365" type="car" from="365" to="-210" begin="0" end="1800" period="300" />
  <flow id="normal_379" type="car" from="379" to="-361" begin="0" end="1800" period="300" />
  <flow id="normal_38" type="car" from="38" to="121" begin="0" end="1800" period="300" />
  <flow id="normal_381" type="car" from="381" to="1005" begin="0" end="1800" period="300" />
  <flow id="normal_383" type="car" from="383" to="-577" begin="0" end="1800" period="300" />
  <flow id="normal_492" type="car" from="492" to="-570" begin="0" end="1800" period="300" />
  <flow id="normal_504" type="car" from="504" to="348" begin="0" end="1800" period="300" />
  <flow id="normal_505" type="car" from="505" to="-613" begin="0" end="1800" period="300" />
  <flow id="normal_517" type="car" from="517" to="-313" begin="0" end="1800" period="300" />
  <flow id="normal_523" type="car" from="523" to="734" begin="0" end="1800" period="300" />
  <flow id="normal_535" type="car" from="535" to="319" begin="0" end="1800" period="300" />
  <flow id="normal_570" type="car" from="570" to="123" begin="0" end="1800" period="300" />
  <flow id="normal_577" type="car" from="577" to="-128" begin="0" end="1800" period="300" />
  <flow id="normal_579" type="car" from="579" to="608" begin="0" end="1800" period="300" />
  <flow id="normal_585" type="car" from="585" to="-338" begin="0" end="1800" period="300" />
  <flow id="normal_588" type="car" from="588" to="-505" begin="0" end="1800" period="300" />
  <flow id="normal_589" type="car" from="589" to="-11" begin="0" end="1800" period="300" />
  <flow id="normal_601" type="car" from="601" to="125" begin="0" end="1800" period="300" />
  <flow id="normal_608" type="car" from="608" to="-19" begin="0" end="1800" period="300" />
  <flow id="normal_612" type="car" from="612" to="381" begin="0" end="1800" period="300" />
  <flow id="normal_613" type="car" from="613" to="-1093" begin="0" end="1800" period="300" />
  <flow id="normal_614" type="car" from="614" to="-880" begin="0" end="1800" period="300" />
  <flow id="normal_623" type="car" from="623" to="-326" begin="0" end="1800" period="300" />
  <flow id="normal_625" type="car" from="625" to="589" begin="0" end="1800" period="300" />
  <flow id="normal_639" type="car" from="639" to="504" begin="0" end="1800" period="300" />
  <flow id="normal_64" type="car" from="64" to="1363" begin="0" end="1800" period="300" />
  <flow id="normal_679" type="car" from="679" to="577" begin="0" end="1800" period="300" />
  <flow id="normal_696" type="car" from="696" to="-1323" begin="0" end="1800" period="300" />
  <flow id="normal_698" type="car" from="698" to="-492" begin="0" end="1800" period="300" />
  <flow id="normal_7" type="car" from="7" to="-730" begin="0" end="1800" period="300" />
  <flow id="normal_728" type="car" from="728" to="325" begin="0" end="1800" period="300" />
  <flow id="normal_730" type="car" from="730" to="-1359" begin="0" end="1800" period="300" />
  <flow id="normal_732" type="car" from="732" to="-11" begin="0" end="1800" period="300" />
  <flow id="normal_734" type="car" from="734" to="-696" begin="0" end="1800" period="300" />
  <flow id="normal_870" type="car" from="870" to="64" begin="0" end="1800" period="300" />
  <flow id="normal_876" type="car" from="876" to="882" begin="0" end="1800" period="300" />
  <flow id="normal_880" type="car" from="880" to="1005" begin="0" end="1800" period="300" />
  <flow id="normal_882" type="car" from="882" to="523" begin="0" end="1800" period="300" />
  <flow id="normal_9" type="car" from="9" to="1033" begin="0" end="1800" period="300" />
  <flow id="congested_-1005" type="car" from="-1005" to="1373" begin="1800" end="3600" period="30" />
  <flow id="congested_-1011" type="car" from="-1011" to="-338" begin="1800" end="3600" period="30" />
  <flow id="congested_-1027" type="car" from="-1027" to="-1005" begin="1800" end="3600" period="30" />
  <flow id="congested_-1029" type="car" from="-1029" to="1357" begin="1800" end="3600" period="30" />
  <flow id="congested_-1033" type="car" from="-1033" to="-344" begin="1800" end="3600" period="30" />
  <flow id="congested_-1093" type="car" from="-1093" to="-1447" begin="1800" end="3600" period="30" />
  <flow id="congested_-11" type="car" from="-11" to="-1093" begin="1800" end="3600" period="30" />
  <flow id="congested_-116" type="car" from="-116" to="1373" begin="1800" end="3600" period="30" />
  <flow id="congested_-117" type="car" from="-117" to="-383" begin="1800" end="3600" period="30" />
  <flow id="congested_-119" type="car" from="-119" to="-330" begin="1800" end="3600" period="30" />
  <flow id="congested_-1199" type="car" from="-1199" to="126" begin="1800" end="3600" period="30" />
  <flow id="congested_-121" type="car" from="-121" to="-9" begin="1800" end="3600" period="30" />
  <flow id="congested_-123" type="car" from="-123" to="-348" begin="1800" end="3600" period="30" />
  <flow id="congested_-125" type="car" from="-125" to="1343" begin="1800" end="3600" period="30" />
  <flow id="congested_-126" type="car" from="-126" to="-336" begin="1800" end="3600" period="30" />
  <flow id="congested_-128" type="car" from="-128" to="-325" begin="1800" end="3600" period="30" />
  <flow id="congested_-13" type="car" from="-13" to="123" begin="1800" end="3600" period="30" />
  <flow id="congested_-1323" type="car" from="-1323" to="728" begin="1800" end="3600" period="30" />
  <flow id="congested_-1342" type="car" from="-1342" to="-313" begin="1800" end="3600" period="30" />
  <flow id="congested_-1343" type="car" from="-1343" to="730" begin="1800" end="3600" period="30" />
  <flow id="congested_-1357" type="car" from="-1357" to="-1005" begin="1800" end="3600" period="30" />
  <flow id="congested_-1359" type="car" from="-1359" to="1005" begin="1800" end="3600" period="30" />
  <flow id="congested_-1363" type="car" from="-1363" to="3" begin="1800" end="3600" period="30" />
  <flow id="congested_-1373" type="car" from="-1373" to="-588" begin="1800" end="3600" period="30" />
  <flow id="congested_-138" type="car" from="-138" to="504" begin="1800" end="3600" period="30" />
  <flow id="congested_-1415" type="car" from="-1415" to="-880" begin="1800" end="3600" period="30" />
  <flow id="congested_-1427" type="car" from="-1427" to="-882" begin="1800" end="3600" period="30" />
  <flow id="congested_-1441" type="car" from="-1441" to="3" begin="1800" end="3600" period="30" />
  <flow id="congested_-1447" type="car" from="-1447" to="-210" begin="1800" end="3600" period="30" />
  <flow id="congested_-1494" type="car" from="-1494" to="379" begin="1800" end="3600" period="30" />
  <flow id="congested_-15" type="car" from="-15" to="-365" begin="1800" end="3600" period="30" />
  <flow id="congested_-1533" type="car" from="-1533" to="-1011" begin="1800" end="3600" period="30" />
  <flow id="congested_-1535" type="car" from="-1535" to="880" begin="1800" end="3600" period="30" />
  <flow id="congested_-17" type="car" from="-17" to="-15" begin="1800" end="3600" period="30" />
  <flow id="congested_-19" type="car" from="-19" to="1033" begin="1800" end="3600" period="30" />
  <flow id="congested_-210" type="car" from="-210" to="734" begin="1800" end="3600" period="30" />
  <flow id="congested_-25" type="car" from="-25" to="123" begin="1800" end="3600" period="30" />
  <flow id="congested_-3" type="car" from="-3" to="679" begin="1800" end="3600" period="30" />
  <flow id="congested_-313" type="car" from="-313" to="-19" begin="1800" end="3600" period="30" />
  <flow id="congested_-319" type="car" from="-319" to="614" begin="1800" end="3600" period="30" />
  <flow id="congested_-325" type="car" from="-325" to="119" begin="1800" end="3600" period="30" />
  <flow id="congested_-326" type="car" from="-326" to="-625" begin="1800" end="3600" period="30" />
  <flow id="congested_-330" type="car" from="-330" to="-730" begin="1800" end="3600" period="30" />
  <flow id="congested_-333" type="car" from="-333" to="625" begin="1800" end="3600" period="30" />
  <flow id="congested_-336" type="car" from="-336" to="-119" begin="1800" end="3600" period="30" />
  <flow id="congested_-338" type="car" from="-338" to="-1033" begin="1800" end="3600" period="30" />
  <flow id="congested_-344" type="car" from="-344" to="381" begin="1800" end="3600" period="30" />
  <flow id="congested_-348" type="car" from="-348" to="880" begin="1800" end="3600" period="30" />
  <flow id="congested_-349" type="car" from="-349" to="-589" begin="1800" end="3600" period="30" />
  <flow id="congested_-356" type="car" from="-356" to="-11" begin="1800" end="3600" period="30" />
  <flow id="congested_-361" type="car" from="-361" to="338" begin="1800" end="3600" period="30" />
  <flow id="congested_-365" type="car" from="-365" to="1199" begin="1800" end="3600" period="30" />
  <flow id="congested_-379" type="car" from="-379" to="577" begin="1800" end="3600" period="30" />
  <flow id="congested_-38" type="car" from="-38" to="-639" begin="1800" end="3600" period="30" />
  <flow id="congested_-381" type="car" from="-381" to="-13" begin="1800" end="3600" period="30" />
  <flow id="congested_-383" type="car" from="-383" to="523" begin="1800" end="3600" period="30" />
  <flow id="congested_-492" type="car" from="-492" to="-38" begin="1800" end="3600" period="30" />
  <flow id="congested_-504" type="car" from="-504" to="-1199" begin="1800" end="3600" period="30" />
  <flow id="congested_-505" type="car" from="-505" to="589" begin="1800" end="3600" period="30" />
  <flow id="congested_-517" type="car" from="-517" to="-1363" begin="1800" end="3600" period="30" />
  <flow id="congested_-523" type="car" from="-523" to="505" begin="1800" end="3600" period="30" />
  <flow id="congested_-535" type="car" from="-535" to="1343" begin="1800" end="3600" period="30" />
  <flow id="congested_-570" type="car" from="-570" to="-732" begin="1800" end="3600" period="30" />
  <flow id="congested_-577" type="car" from="-577" to="-732" begin="1800" end="3600" period="30" />
  <flow id="congested_-579" type="car" from="-579" to="126" begin="1800" end="3600" period="30" />
  <flow id="congested_-585" type="car" from="-585" to="128" begin="1800" end="3600" period="30" />
  <flow id="congested_-588" type="car" from="-588" to="121" begin="1800" end="3600" period="30" />
  <flow id="congested_-589" type="car" from="-589" to="-579" begin="1800" end="3600" period="30" />
  <flow id="congested_-601" type="car" from="-601" to="-870" begin="1800" end="3600" period="30" />
  <flow id="congested_-608" type="car" from="-608" to="579" begin="1800" end="3600" period="30" />
  <flow id="congested_-612" type="car" from="-612" to="-1447" begin="1800" end="3600" period="30" />
  <flow id="congested_-613" type="car" from="-613" to="577" begin="1800" end="3600" period="30" />
  <flow id="congested_-614" type="car" from="-614" to="1033" begin="1800" end="3600" period="30" />
  <flow id="congested_-623" type="car" from="-623" to="-1441" begin="1800" end="3600" period="30" />
  <flow id="congested_-625" type="car" from="-625" to="-365" begin="1800" end="3600" period="30" />
  <flow id="congested_-639" type="car" from="-639" to="492" begin="1800" end="3600" period="30" />
  <flow id="congested_-64" type="car" from="-64" to="19" begin="1800" end="3600" period="30" />
  <flow id="congested_-679" type="car" from="-679" to="-1093" begin="1800" end="3600" period="30" />
  <flow id="congested_-696" type="car" from="-696" to="365" begin="1800" end="3600" period="30" />
  <flow id="congested_-698" type="car" from="-698" to="880" begin="1800" end="3600" period="30" />
  <flow id="congested_-7" type="car" from="-7" to="-1323" begin="1800" end="3600" period="30" />
  <flow id="congested_-728" type="car" from="-728" to="333" begin="1800" end="3600" period="30" />
  <flow id="congested_-730" type="car" from="-730" to="-1427" begin="1800" end="3600" period="30" />
  <flow id="congested_-732" type="car" from="-732" to="-535" begin="1800" end="3600" period="30" />
  <flow id="congested_-734" type="car" from="-734" to="361" begin="1800" end="3600" period="30" />
  <flow id="congested_-870" type="car" from="-870" to="119" begin="1800" end="3600" period="30" />
  <flow id="congested_-876" type="car" from="-876" to="728" begin="1800" end="3600" period="30" />
  <flow id="congested_-880" type="car" from="-880" to="-361" begin="1800" end="3600" period="30" />
  <flow id="congested_-882" type="car" from="-882" to="-117" begin="1800" end="3600" period="30" />
  <flow id="congested_-9" type="car" from="-9" to="-698" begin="1800" end="3600" period="30" />
  <flow id="congested_1005" type="car" from="1005" to="-1357" begin="1800" end="3600" period="30" />
  <flow id="congested_1011" type="car" from="1011" to="870" begin="1800" end="3600" period="30" />
  <flow id="congested_1027" type="car" from="1027" to="-876" begin="1800" end="3600" period="30" />
  <flow id="congested_1029" type="car" from="1029" to="1533" begin="1800" end="3600" period="30" />
  <flow id="congested_1033" type="car" from="1033" to="1323" begin="1800" end="3600" period="30" />
  <flow id="congested_1093" type="car" from="1093" to="-361" begin="1800" end="3600" period="30" />
  <flow id="congested_11" type="car" from="11" to="-535" begin="1800" end="3600" period="30" />
  <flow id="congested_116" type="car" from="116" to="361" begin="1800" end="3600" period="30" />
  <flow id="congested_117" type="car" from="117" to="-1363" begin="1800" end="3600" period="30" />
  <flow id="congested_119" type="car" from="119" to="1029" begin="1800" end="3600" period="30" />
  <flow id="congested_1199" type="car" from="1199" to="-11" begin="1800" end="3600" period="30" />
  <flow id="congested_121" type="car" from="121" to="-64" begin="1800" end="3600" period="30" />
  <flow id="congested_123" type="car" from="123" to="1342" begin="1800" end="3600" period="30" />
  <flow id="congested_125" type="car" from="125" to="-325" begin="1800" end="3600" period="30" />
  <flow id="congested_126" type="car" from="126" to="1033" begin="1800" end="3600" period="30" />
  <flow id="congested_128" type="car" from="128" to="1093" begin="1800" end="3600" period="30" />
  <flow id="congested_13" type="car" from="13" to="625" begin="1800" end="3600" period="30" />
  <flow id="congested_1323" type="car" from="1323" to="-623" begin="1800" end="3600" period="30" />
  <flow id="congested_1342" type="car" from="1342" to="-125" begin="1800" end="3600" period="30" />
  <flow id="congested_1343" type="car" from="1343" to="-1441" begin="1800" end="3600" period="30" />
  <flow id="congested_1357" type="car" from="1357" to="-732" begin="1800" end="3600" period="30" />
  <flow id="congested_1359" type="car" from="1359" to="-123" begin="1800" end="3600" period="30" />
  <flow id="congested_1363" type="car" from="1363" to="383" begin="1800" end="3600" period="30" />
  <flow id="congested_1373" type="car" from="1373" to="325" begin="1800" end="3600" period="30" />
  <flow id="congested_138" type="car" from="138" to="-1199" begin="1800" end="3600" period="30" />
  <flow id="congested_1415" type="car" from="1415" to="-356" begin="1800" end="3600" period="30" />
  <flow id="congested_1427" type="car" from="1427" to="-614" begin="1800" end="3600" period="30" />
  <flow id="congested_1441" type="car" from="1441" to="1027" begin="1800" end="3600" period="30" />
  <flow id="congested_1447" type="car" from="1447" to="523" begin="1800" end="3600" period="30" />
  <flow id="congested_1494" type="car" from="1494" to="492" begin="1800" end="3600" period="30" />
  <flow id="congested_15" type="car" from="15" to="-125" begin="1800" end="3600" period="30" />
  <flow id="congested_1533" type="car" from="1533" to="870" begin="1800" end="3600" period="30" />
  <flow id="congested_1535" type="car" from="1535" to="9" begin="1800" end="3600" period="30" />
  <flow id="congested_17" type="car" from="17" to="-1093" begin="1800" end="3600" period="30" />
  <flow id="congested_19" type="car" from="19" to="-1447" begin="1800" end="3600" period="30" />
  <flow id="congested_210" type="car" from="210" to="381" begin="1800" end="3600" period="30" />
  <flow id="congested_25" type="car" from="25" to="313" begin="1800" end="3600" period="30" />
  <flow id="congested_3" type="car" from="3" to="1323" begin="1800" end="3600" period="30" />
  <flow id="congested_313" type="car" from="313" to="-1033" begin="1800" end="3600" period="30" />
  <flow id="congested_319" type="car" from="319" to="-623" begin="1800" end="3600" period="30" />
  <flow id="congested_325" type="car" from="325" to="-313" begin="1800" end="3600" period="30" />