<?xml version="1.0" encoding="UTF-8"?>

<!-- generated on 2025-06-27 08:55:21 by Eclipse SUMO netedit Version 1.22.0
-->

<routes xmlns:xsi="http://www.w3.org/2001/XMLSchema-instance" xsi:noNamespaceSchemaLocation="http://sumo.dlr.de/xsd/routes_file.xsd">
    <!-- Vehicles, persons and containers (sorted by depart) -->
    <vehicle id="1" depart="1.00">
        <route edges="-325 -38 -17 25 -25"/>
    </vehicle>
    <vehicle id="4" depart="4.00">
        <route edges="-614 -579 -383 -128 -25 17 116 -116"/>
    </vehicle>
    <vehicle id="7" depart="7.00">
        <route edges="1427 1447 1535 -876 -639 -319 -117 -15 -3 11 728 1029 1093 1342"/>
    </vehicle>
    <vehicle id="9" depart="9.00">
        <route edges="356 -348 -333 679 -870 1029 1093 1342 -1011"/>
    </vehicle>
    <vehicle id="12" depart="12.00">
        <route edges="698 1027 1199 -1343 -1093 -1005 -612 -577"/>
    </vehicle>
    <vehicle id="13" depart="13.00">
        <route edges="-1359 1359 -876 -639 -319 -117 -15 -3 7 333 -138"/>
    </vehicle>
    <vehicle id="15" depart="15.00">
        <route edges="349 -344 -125 -19 -9 3"/>
    </vehicle>
    <vehicle id="20" depart="20.00">
        <route edges="1533 -1494 1357 1415 -523 -338 -123"/>
    </vehicle>
    <vehicle id="22" depart="22.00">
        <route edges="-1342 -1093 -1029 -728 -11 3 13 116 -313"/>
    </vehicle>
    <vehicle id="23" depart="23.00">
        <route edges="-1373 1359 -876 -639 -319 -38 -17 25 138 348 -356"/>
    </vehicle>
    <vehicle id="26" depart="26.00">
        <route edges="-3 11 696"/>
    </vehicle>
    <vehicle id="28" depart="28.00">
        <route edges="-15 -3 3"/>
    </vehicle>
    <vehicle id="29" depart="29.00">
        <route edges="-1494 1357 1415 -523 -338 -123 -19 25 128 383 577 608 -614"/>
    </vehicle>
    <vehicle id="32" depart="32.00">
        <route edges="504 -505 -338 -123 -19 25 210 349"/>
    </vehicle>
    <vehicle id="34" depart="34.00">
        <route edges="-356 356 -348"/>
    </vehicle>
    <vehicle id="36" depart="36.00">
        <route edges="579 613 -585 -210 -25 17 38 325 588 -517"/>
    </vehicle>
    <vehicle id="38" depart="38.00">
        <route edges="614 -608 -577 -383 -128 -25 17 38 319 625 734 1033 -882"/>
    </vehicle>
    <vehicle id="39" depart="39.00">
        <route edges="-3 3 15 119 330 -330"/>
    </vehicle>
    <vehicle id="40" depart="40.00">
        <route edges="116 -313 325 588 -517 -338"/>
    </vehicle>
    <vehicle id="41" depart="41.00">
        <route edges="125 -125 121 326 -313 319 623"/>
    </vehicle>
    <vehicle id="43" depart="43.00">
        <route edges="9 -9 11 698 1027 1199"/>
    </vehicle>
    <vehicle id="44" depart="44.00">
        <route edges="-1357 1357 1415 -523 -338 -123"/>
    </vehicle>
    <vehicle id="46" depart="46.00">
        <route edges="336 -336 -123 -19 -9 11 698 1027 -1027 -698"/>
    </vehicle>
    <vehicle id="47" depart="47.00">
        <route edges="-126 128 383 577 608 -614"/>
    </vehicle>
    <vehicle id="48" depart="48.00">
        <route edges="882 -1033 -734 -625 -319 -38 -17 25 126"/>
    </vehicle>
    <vehicle id="49" depart="49.00">
        <route edges="732 -330 -119 117 325 589"/>
    </vehicle>
    <vehicle id="50" depart="50.00">
        <route edges="-1029 -728 -11 9 19"/>
    </vehicle>
    <vehicle id="51" depart="51.00">
        <route edges="15 -15 13"/>
    </vehicle>
    <vehicle id="55" depart="55.00">
        <route edges="579 613 -585 349 -344"/>
    </vehicle>
    <vehicle id="57" depart="57.00">
        <route edges="614 -608 -577 -383 381 349 365 535 601"/>
    </vehicle>
    <vehicle id="60" depart="60.00">
        <route edges="3 15 117 319 639 882 1323"/>
    </vehicle>
    <vehicle id="61" depart="61.00">
        <route edges="330 -330 -119 117 -38 -17 25 126"/>
    </vehicle>
    <vehicle id="65" depart="65.00">
        <route edges="-348 -138 128 -128"/>
    </vehicle>
    <vehicle id="66" depart="66.00">
        <route edges="585 -585 -210 -25 -9 11 728"/>
    </vehicle>
    <vehicle id="68" depart="68.00">
        <route edges="-13 13 64 -121 123 336"/>
    </vehicle>
    <vehicle id="69" depart="69.00">
        <route edges="313 -313 319 639 876 -1535 -1533 -1441"/>
    </vehicle>
    <vehicle id="71" depart="71.00">
        <route edges="-3 9 19 125 344 365 535 601"/>
    </vehicle>
    <vehicle id="73" depart="73.00">
        <route edges="1011 -1342 -1093 -1029 -728 -11 3"/>
    </vehicle>
    <vehicle id="74" depart="74.00">
        <route edges="-1535 -1494 1357 1415 -523 505 -505"/>
    </vehicle>
    <vehicle id="76" depart="76.00">
        <route edges="-625 -319 -38 -17 19 121"/>
    </vehicle>
    <vehicle id="78" depart="78.00">
        <route edges="-383 -128 -25 19 123 338 523 -1415 1415"/>
    </vehicle>
    <vehicle id="82" depart="82.00">
        <route edges="535 601 -613 614 -608 612 1011 -1342"/>
    </vehicle>
    <vehicle id="86" depart="86.00">
        <route edges="-696 -11 9 19 123 336 361"/>
    </vehicle>
    <vehicle id="88" depart="88.00">
        <route edges="-1363 1359 -876 -639 -319 -117 -15 -3 11 728 -728"/>
    </vehicle>
    <vehicle id="89" depart="89.00">
        <route edges="-614 614 -608 612 1005"/>
    </vehicle>
    <vehicle id="91" depart="91.00">
        <route edges="870 -679 333 -138"/>
    </vehicle>
    <vehicle id="95" depart="95.00">
        <route edges="-614 -579 -383 -128 138 348 -356"/>
    </vehicle>
    <vehicle id="97" depart="97.00">
        <route edges="-64 38 325 589"/>
    </vehicle>
    <vehicle id="98" depart="98.00">
        <route edges="1033 -882 -639 -319 313 -326 -121 125 -125"/>
    </vehicle>
    <vehicle id="100" depart="100.00">
        <route edges="730 -639 -319 -117 -15 -3 7 679"/>
    </vehicle>
    <vehicle id="102" depart="102.00">
        <route edges="-730 -623 -319 313 -326 -121 -19"/>
    </vehicle>
    <vehicle id="104" depart="104.00">
        <route edges="-577 -383 -128 -25 17 38 319 639 876"/>
    </vehicle>
    <vehicle id="105" depart="105.00">
        <route edges="-3 9 19 123 336 361"/>
    </vehicle>
    <vehicle id="107" depart="107.00">
        <route edges="698 1027 -1027 -698 -11 3 15 117 319 639 882"/>
    </vehicle>
    <vehicle id="108" depart="108.00">
        <route edges="1093 -1093 -1029 -728 -11 9 19"/>
    </vehicle>
    <vehicle id="111" depart="111.00">
        <route edges="1027 -1027 -698 -11 3 13 64 326"/>
    </vehicle>
    <vehicle id="125" depart="125.00">
        <route edges="-356 -7 3 15 119 330"/>
    </vehicle>
    <vehicle id="126" depart="126.00">
        <route edges="-1323 -882"/>
    </vehicle>
    <vehicle id="127" depart="127.00">
        <route edges="9 17 38 319 639 882"/>
    </vehicle>
    <vehicle id="130" depart="130.00">
        <route edges="585 -613 614 -608 612"/>
    </vehicle>
    <vehicle id="135" depart="135.00">
        <route edges="365 535 601 -613 -579 -383"/>
    </vehicle>
    <vehicle id="136" depart="136.00">
        <route edges="1441 1533 1535 -876 -639 -319 -117 -15 -3 11 696"/>
    </vehicle>
    <vehicle id="142" depart="142.00">
        <route edges="-730 -623 639"/>
    </vehicle>
    <vehicle id="143" depart="143.00">
        <route edges="505 -505 523 -1415 -1357 1494 -1447 -1373"/>
    </vehicle>
    <vehicle id="144" depart="144.00">
        <route edges="-614 -579 -383 -128 138 348 -356"/>
    </vehicle>
    <vehicle id="145" depart="145.00">
        <route edges="-1005 1005 -1029 870 -679 333 348"/>
    </vehicle>
    <vehicle id="149" depart="149.00">
        <route edges="-1323 -882 -639 -319 -38 -17 25 128 383 579 613"/>
    </vehicle>
    <vehicle id="150" depart="150.00">
        <route edges="608 -614 614 -608 612 1005 1093 1342"/>
    </vehicle>
    <vehicle id="152" depart="152.00">
        <route edges="-1447 1441 -1441"/>
    </vehicle>
    <vehicle id="153" depart="153.00">
        <route edges="-348 -138 -25 17 38 319 623"/>
    </vehicle>
    <vehicle id="154" depart="154.00">
        <route edges="338 517 -588 589"/>
    </vehicle>
    <vehicle id="157" depart="157.00">
        <route edges="330 -330 -119 117 -38 -17 25 128 383 579 613"/>
    </vehicle>
    <vehicle id="161" depart="161.00">
        <route edges="356 -348 -138 128 383 577 612"/>
    </vehicle>
    <vehicle id="162" depart="162.00">
        <route edges="-1093 -1029 -728 -11 3 15 117 313"/>
    </vehicle>
    <vehicle id="165" depart="165.00">
        <route edges="356 -348 -138 210 349 -344"/>
    </vehicle>
    <vehicle id="166" depart="166.00">
        <route edges="333 -138 126 -125 123 338 523 -1415"/>
    </vehicle>
    <vehicle id="167" depart="167.00">
        <route edges="577 -577 -383 -128 -25 17 38 325 588"/>
    </vehicle>
    <vehicle id="169" depart="169.00">
        <route edges="-679 333 -138 126 -570 -492"/>
    </vehicle>
    <vehicle id="170" depart="170.00">
        <route edges="338 517 -588 -325 -117 -15 -3"/>
    </vehicle>
    <vehicle id="173" depart="173.00">
        <route edges="730 880 1357 1415 -523 -338 336 361 -361"/>
    </vehicle>
    <vehicle id="174" depart="174.00">
        <route edges="1415 -523 -338 -123 121 -64"/>
    </vehicle>
    <vehicle id="175" depart="175.00">
        <route edges="870 -679 -7 3 13"/>
    </vehicle>
    <vehicle id="177" depart="177.00">
        <route edges="732 -330 -119 117 -38 -17"/>
    </vehicle>
    <vehicle id="178" depart="178.00">
        <route edges="728 870 -679 333 -138 210 349 -344"/>
    </vehicle>
    <vehicle id="181" depart="181.00">
        <route edges="1342 -1342 1343 -1199 1199"/>
    </vehicle>
    <vehicle id="184" depart="184.00">
        <route edges="-1005 1005 -1029 870 -679 679"/>
    </vehicle>
    <vehicle id="185" depart="185.00">
        <route edges="1011 -1342 -1093 -1029 -728 -11 9 19"/>
    </vehicle>
    <vehicle id="189" depart="189.00">
        <route edges="-356 333 -138 128 383 579"/>
    </vehicle>
    <vehicle id="196" depart="196.00">
        <route edges="-338 -123 -19 -9 11 728 1029 1093 1343"/>
    </vehicle>
    <vehicle id="197" depart="197.00">
        <route edges="-1005 -612 -577 -383 -128 126 -570 -379"/>
    </vehicle>
    <vehicle id="201" depart="201.00">
        <route edges="-696 -11 3 15 117 319 625"/>
    </vehicle>
    <vehicle id="202" depart="202.00">
        <route edges="338 523 -1415 -1357 1494 -1533"/>
    </vehicle>
    <vehicle id="204" depart="204.00">
        <route edges="138 -138 126 -570"/>
    </vehicle>
    <vehicle id="205" depart="205.00">
        <route edges="365 -365 -344 -125 121 326 -313 -117 119 330"/>
    </vehicle>
    <vehicle id="206" depart="206.00">
        <route edges="1494 1535 -876 -639 -319 -38 -17 25 -25"/>
    </vehicle>
    <vehicle id="207" depart="207.00">
        <route edges="-1535 1535 -876 -639 -319 -117 -15 -3 11 -11"/>
    </vehicle>
    <vehicle id="209" depart="209.00">
        <route edges="517 -588 -325 -117 -15 -3 11 698 1027 1199 -1343"/>
    </vehicle>
    <vehicle id="210" depart="210.00">
        <route edges="-612 -577 -383 -128 -25 19 123 338 523 -1415 -1357 1494"/>
    </vehicle>
    <vehicle id="212" depart="212.00">
        <route edges="-734 -625 -319 313 -326"/>
    </vehicle>
    <vehicle id="214" depart="214.00">
        <route edges="19 125 344"/>
    </vehicle>
    <vehicle id="215" depart="215.00">
        <route edges="-138 138 -333 -7"/>
    </vehicle>
    <vehicle id="217" depart="217.00">
        <route edges="-870 870 -679 333 -138 126 -125"/>
    </vehicle>
    <vehicle id="220" depart="220.00">
        <route edges="1447 1535 -876 876"/>
    </vehicle>
    <vehicle id="221" depart="221.00">
        <route edges="13 -13 -3 11 728"/>
    </vehicle>
    <vehicle id="224" depart="224.00">
        <route edges="381 -381 383 577 612 1005 1093 1343"/>
    </vehicle>
    <vehicle id="225" depart="225.00">
        <route edges="601 -585 -210 -25 17 38 325"/>
    </vehicle>
    <vehicle id="226" depart="226.00">
        <route edges="-698 -11 9 19 123 336 -336"/>
    </vehicle>
    <vehicle id="228" depart="228.00">
        <route edges="313 -326 -121 123"/>
    </vehicle>
    <vehicle id="229" depart="229.00">
        <route edges="1373 1447 -1494 1357 1415 -523 -338 -123 125 344 -349"/>
    </vehicle>
    <vehicle id="230" depart="230.00">
        <route edges="-1342 -1093 -1005 -612 608 -614 613 -601 -535 -365"/>
    </vehicle>
    <vehicle id="231" depart="231.00">
        <route edges="-319 325 589 -523"/>
    </vehicle>
    <vehicle id="232" depart="232.00">
        <route edges="1011 -1342 -1093 -1029 -728 -11 3 15 117 319 639 876 -1535 -1494"/>
    </vehicle>
    <vehicle id="234" depart="234.00">
        <route edges="1535 -876 -639 -319 -38 -13"/>
    </vehicle>
    <vehicle id="235" depart="235.00">
        <route edges="-601 -535 -365 -349 -381 383 577 612 1005 1093 1342"/>
    </vehicle>
    <vehicle id="237" depart="237.00">
        <route edges="-614 -579 -383 -128 -25 17 38 319 639"/>
    </vehicle>
    <vehicle id="240" depart="240.00">
        <route edges="-577 577 612 1011 -1011"/>
    </vehicle>
    <vehicle id="242" depart="242.00">
        <route edges="523 -589 -325 319 623 730"/>
    </vehicle>
    <vehicle id="243" depart="243.00">
        <route edges="-613 -579 -383 -128 -25 17 64 326"/>
    </vehicle>
    <vehicle id="246" depart="246.00">
        <route edges="-625 -319 313 -116"/>
    </vehicle>
    <vehicle id="250" depart="250.00">
        <route edges="1363 -1363 1359 -876 -639 -319 313 -116"/>
    </vehicle>
    <vehicle id="251" depart="251.00">
        <route edges="-589 -325 319 639 876 -1359 1363"/>
    </vehicle>
    <vehicle id="254" depart="254.00">
        <route edges="-121 125 -126 128 383 577 608 -614"/>
    </vehicle>
    <vehicle id="256" depart="256.00">
        <route edges="3 13 -17 25 128 383 577 608 -614"/>
    </vehicle>
    <vehicle id="258" depart="258.00">
        <route edges="-19 19 123 338 523 -1415 -1357"/>
    </vehicle>
    <vehicle id="260" depart="260.00">
        <route edges="9 19 123 338 517 -588"/>
    </vehicle>
    <vehicle id="261" depart="261.00">
        <route edges="1427 1447 1535 -876 -639 -319 -117 -15 -3 7 356"/>
    </vehicle>
    <vehicle id="266" depart="266.00">
        <route edges="116 -116 -17 25 210 -210"/>
    </vehicle>
    <vehicle id="273" depart="273.00">
        <route edges="7 -7 3 15 117 319 639 -639"/>
    </vehicle>
    <vehicle id="276" depart="276.00">
        <route edges="-1373 1359 -876 -639 -319 -38 -17 25 138 348"/>
    </vehicle>
    <vehicle id="282" depart="282.00">
        <route edges="517"/>
    </vehicle>
    <vehicle id="283" depart="283.00">
        <route edges="-138 -25 17 38 319 625 734"/>
    </vehicle>
    <vehicle id="285" depart="285.00">
        <route edges="1535 -876 -639 625 732 -732"/>
    </vehicle>
    <vehicle id="287" depart="287.00">
        <route edges="-313 325 588 -517 -338 336 361 492"/>
    </vehicle>
    <vehicle id="288" depart="288.00">
        <route edges="1011 -1342 -1093 -1029 -728 -11 3 15 117 319 625 734 1033"/>
    </vehicle>
    <vehicle id="289" depart="289.00">
        <route edges="-625 -319 -117 -15 -3 3"/>
    </vehicle>
    <vehicle id="290" depart="290.00">
        <route edges="-313 -38 -17 25 210 585"/>
    </vehicle>
    <vehicle id="291" depart="291.00">
        <route edges="381 -210 -25 17 38 319 639 876 -1359"/>
    </vehicle>
    <vehicle id="292" depart="292.00">
        <route edges="585 -585 -210 -25 17 116 -326"/>
    </vehicle>
    <vehicle id="294" depart="294.00">
        <route edges="-577 -383 -128 -25 17 116 -116"/>
    </vehicle>
    <vehicle id="297" depart="297.00">
        <route edges="-492 492 -379 -349 -381 383 577 612"/>
    </vehicle>
    <vehicle id="299" depart="299.00">
        <route edges="-1027 -698 728"/>
    </vehicle>
    <vehicle id="301" depart="301.00">
        <route edges="-732 -625 -319 -117 -15 -3 7 333"/>
    </vehicle>
    <vehicle id="303" depart="303.00">
        <route edges="-732 -625 -319 313 -326 -121 125 344 379"/>
    </vehicle>
    <vehicle id="304" depart="304.00">
        <route edges="-1359 1359 -876 -639 -319 -38 -17 25 -25"/>
    </vehicle>
    <vehicle id="306" depart="306.00">
        <route edges="123 -123 -19 -9 11 728 1029 -1005 1011"/>
    </vehicle>
    <vehicle id="307" depart="307.00">
        <route edges="-9 7 -7"/>
    </vehicle>
    <vehicle id="309" depart="309.00">
        <route edges="1533 1535 -876 -639 -319 -117 -15 -3 7 356 -348"/>
    </vehicle>
    <vehicle id="312" depart="312.00">
        <route edges="1005 -1029 -728 -11 9 19 123 336"/>
    </vehicle>
    <vehicle id="314" depart="314.00">
        <route edges="-728 -11 9 25 210"/>
    </vehicle>
    <vehicle id="315" depart="315.00">
        <route edges="734 1033 -882 -639 -319 313 -326 -121 125"/>
    </vehicle>
    <vehicle id="319" depart="319.00">
        <route edges="-9 9 19 125 344 -349"/>
    </vehicle>
    <vehicle id="322" depart="322.00">
        <route edges="570 -126 128 383 577 612 1005 1093"/>
    </vehicle>
    <vehicle id="327" depart="327.00">
        <route edges="379 570 -125 121 -64"/>
    </vehicle>
    <vehicle id="328" depart="328.00">
        <route edges="-1323 -882 880 1494"/>
    </vehicle>
    <vehicle id="330" depart="330.00">
        <route edges="116 -326 -121 125 -570 -492"/>
    </vehicle>
    <vehicle id="333" depart="333.00">
        <route edges="336 -336 -123 121 -64 -13 -3"/>
    </vehicle>
    <vehicle id="334" depart="334.00">
        <route edges="-876"/>
    </vehicle>
    <vehicle id="335" depart="335.00">
        <route edges="-639 -319 325 589"/>
    </vehicle>
    <vehicle id="336" depart="336.00">
        <route edges="880 1357 1415 -523 505 -504"/>
    </vehicle>
    <vehicle id="337" depart="337.00">
        <route edges="1359 -1535 -1447 1441"/>
    </vehicle>
    <vehicle id="342" depart="342.00">
        <route edges="-1005 -612 -577 -383 -128 -25 17 38 319 639 876 -876"/>
    </vehicle>
    <vehicle id="343" depart="343.00">
        <route edges="128 -128 -25 17 38 -38"/>
    </vehicle>
    <vehicle id="345" depart="345.00">
        <route edges="1533 1535 -876"/>
    </vehicle>
    <vehicle id="351" depart="351.00">
        <route edges="38 -117 -15 -3 11 728 1029 1093 1342 -1342"/>
    </vehicle>
    <vehicle id="353" depart="353.00">
        <route edges="19 125 -126 138"/>
    </vehicle>
    <vehicle id="357" depart="357.00">
        <route edges="-734 -625 639 880 1357 -1357"/>
    </vehicle>
    <vehicle id="358" depart="358.00">
        <route edges="-119 117 319 639 -730"/>
    </vehicle>
    <vehicle id="362" depart="362.00">
        <route edges="696 -679 -7 9"/>
    </vehicle>
    <vehicle id="363" depart="363.00">
        <route edges="1494 1535 -876 -639 -319 -117 -15 -3 7 356 -348"/>
    </vehicle>
    <vehicle id="364" depart="364.00">
        <route edges="-119 -15 -3 7 333"/>
    </vehicle>
    <vehicle id="367" depart="367.00">
        <route edges="125 -125 121 -64 -13 15"/>
    </vehicle>
    <vehicle id="368" depart="368.00">
        <route edges="-732 734 1033 1323 1363 -1363"/>
    </vehicle>
    <vehicle id="369" depart="369.00">
        <route edges="-504 -336 -123 125 -570"/>
    </vehicle>
    <vehicle id="378" depart="378.00">
        <route edges="1027 -1027 -698 696 -679"/>
    </vehicle>
    <vehicle id="385" depart="385.00">
        <route edges="1343 -1199 -1027 -698 -11 3 15 117 325 -325"/>
    </vehicle>
    <vehicle id="387" depart="387.00">
        <route edges="1033 1323 1373 -1373"/>
    </vehicle>
    <vehicle id="389" depart="389.00">
        <route edges="-679 -7 3 15 117 319 639 876 -1535 -1447 -1427"/>
    </vehicle>
    <vehicle id="390" depart="390.00">
        <route edges="383 -383 -128 -25 17 116"/>
    </vehicle>
    <vehicle id="392" depart="392.00">
        <route edges="-319 313 -326 -121 125 344 365 535"/>
    </vehicle>
    <vehicle id="395" depart="395.00">
        <route edges="623 730 -639 -319 -117 -15 -3 11 698 1027 1199"/>
    </vehicle>
    <vehicle id="397" depart="397.00">
        <route edges="-325 313 -326 -121 125 344 365"/>
    </vehicle>
    <vehicle id="400" depart="400.00">
        <route edges="-330 -119 117 -38 -17 25 128 383 -383"/>
    </vehicle>
    <vehicle id="401" depart="401.00">
        <route edges="125 -126 -25 -9 9"/>
    </vehicle>
    <vehicle id="402" depart="402.00">
        <route edges="-732 -625 -319 -117 -15"/>
    </vehicle>
    <vehicle id="403" depart="403.00">
        <route edges="1011 -1011 -612 608 -614 613 -585"/>
    </vehicle>
    <vehicle id="404" depart="404.00">
        <route edges="1033 -882 -639 -319 -117 -15 -3 11 728 1029 1093 1342"/>
    </vehicle>
    <vehicle id="407" depart="407.00">
        <route edges="119 330 -732 -625 -319"/>
    </vehicle>
    <vehicle id="408" depart="408.00">
        <route edges="326 -326 -121"/>
    </vehicle>
    <vehicle id="410" depart="410.00">
        <route edges="356 -348 -138 -25 17 38 319 639 -730 -623"/>
    </vehicle>
    <vehicle id="411" depart="411.00">
        <route edges="1441 1533 -1494 1357 1415 -523 517"/>
    </vehicle>
    <vehicle id="413" depart="413.00">
        <route edges="-117 117"/>
    </vehicle>
    <vehicle id="415" depart="415.00">
        <route edges="579 613 -585 -210 -25 17 38 319 639 882 -1033 -734"/>
    </vehicle>
    <vehicle id="416" depart="416.00">
        <route edges="-880"/>
    </vehicle>
    <vehicle id="421" depart="421.00">
        <route edges="1427 1447 1535 -876 -639 -319 -38 -17 25 210 585"/>
    </vehicle>
    <vehicle id="422" depart="422.00">
        <route edges="523 -589 589"/>
    </vehicle>
    <vehicle id="423" depart="423.00">
        <route edges="-577 -383 -128 -25 17 38 325 588 -517"/>
    </vehicle>
    <vehicle id="425" depart="425.00">
        <route edges="577 612 1005 -1029 -728 -11 3 15 119 -119"/>
    </vehicle>
    <vehicle id="427" depart="427.00">
        <route edges="623 730 -639 -319 -117 -15 -3 9"/>
    </vehicle>
    <vehicle id="429" depart="429.00">
        <route edges="-1363 1359 -876 -639 -319 -38 -13 15"/>
    </vehicle>
    <vehicle id="433" depart="433.00">
        <route edges="-333 333 -138 210 585 -613"/>
    </vehicle>
    <vehicle id="434" depart="434.00">
        <route edges="-1447 1447 1535 -876 -639 -319 -38 -17 25 128"/>
    </vehicle>
    <vehicle id="435" depart="435.00">
        <route edges="117 313 -326 -121 125 344 379"/>
    </vehicle>
    <vehicle id="439" depart="439.00">
        <route edges="-1441 -1373 -1323 -882"/>
    </vehicle>
    <vehicle id="440" depart="440.00">
        <route edges="-19 25 138 -333"/>
    </vehicle>
    <vehicle id="441" depart="441.00">
        <route edges="-1027 -698 -11 9 25 128 383"/>
    </vehicle>
    <vehicle id="448" depart="448.00">
        <route edges="-728 -11 3 15 117 325 -325"/>
    </vehicle>
    <vehicle id="450" depart="450.00">
        <route edges="882 -1033 -734 -625 -319 -38 -17 25 210 -381"/>
    </vehicle>
    <vehicle id="452" depart="452.00">
        <route edges="-319 319 639 876 -1359 1373"/>
    </vehicle>
    <vehicle id="456" depart="456.00">
        <route edges="-330 -119 117 -38 -17 25 128 381"/>
    </vehicle>
    <vehicle id="457" depart="457.00">
        <route edges="1343 -1199 -1027 -698 -11 9 19 123 338 523 -589"/>
    </vehicle>
    <vehicle id="461" depart="461.00">
        <route edges="1373 1447 1535 -876 -639 625"/>
    </vehicle>
    <vehicle id="465" depart="465.00">
        <route edges="-336 -123 121 326"/>
    </vehicle>
    <vehicle id="469" depart="469.00">
        <route edges="381 349 379 -492 -361 -336"/>
    </vehicle>
    <vehicle id="470" depart="470.00">
        <route edges="38 319 625 734 1033"/>
    </vehicle>
    <vehicle id="471" depart="471.00">
        <route edges="349 -344 -125 121 326"/>
    </vehicle>
    <vehicle id="472" depart="472.00">
        <route edges="-383 -128 -25 17 38 319 639 876 -1535 -1447 -1427"/>
    </vehicle>
    <vehicle id="473" depart="473.00">
        <route edges="728 870 -679 -7 3 15 117 319 639 876 -1535 -1494"/>
    </vehicle>
    <vehicle id="474" depart="474.00">
        <route edges="730 -639 -319 325 589"/>
    </vehicle>
    <vehicle id="476" depart="476.00">
        <route edges="730 -639 -319 -38 -17 25 128 383"/>
    </vehicle>
    <vehicle id="478" depart="478.00">
        <route edges="-1029 -728 -11 3 13"/>
    </vehicle>
    <vehicle id="481" depart="481.00">
        <route edges="379 570 -125 -19 -9 11 698"/>
    </vehicle>
    <vehicle id="483" depart="483.00">
        <route edges="-1093 -1005 -612 608 -614 613"/>
    </vehicle>
    <vehicle id="486" depart="486.00">
        <route edges="379 570 -125 121 -64 64"/>
    </vehicle>
    <vehicle id="489" depart="489.00">
        <route edges="-344 -125 -19 -9 11"/>
    </vehicle>
    <vehicle id="490" depart="490.00">
        <route edges="-1363 1359 -876 -639 -319 -38 -17 25 128 383 579 614"/>
    </vehicle>
    <vehicle id="495" depart="495.00">
        <route edges="-612 -577 -383 -128 138 -138"/>
    </vehicle>
    <vehicle id="497" depart="497.00">
        <route edges="696 -679 -7 3 15 117 -117"/>
    </vehicle>
    <vehicle id="499" depart="499.00">
        <route edges="696 -679 -7 3 15 117 325 588"/>
    </vehicle>
    <vehicle id="502" depart="502.00">
        <route edges="-517 -338 -123 121 -64"/>
    </vehicle>
    <vehicle id="504" depart="504.00">
        <route edges="517 -588 589 -1415 -1357 -880"/>
    </vehicle>
    <vehicle id="506" depart="506.00">
        <route edges="13 -13 -3 11 728 1029 1093 -1093"/>
    </vehicle>
    <vehicle id="507" depart="507.00">
        <route edges="333 -138 -25 17 116 -326"/>
    </vehicle>
    <vehicle id="508" depart="508.00">
        <route edges="-1415 -1357 -880 876 -1359 1363"/>
    </vehicle>
    <vehicle id="509" depart="509.00">
        <route edges="-128 -25 19 123 338"/>
    </vehicle>
    <vehicle id="512" depart="512.00">
        <route edges="-1447 1447 1535 -876 -639 623"/>
    </vehicle>
    <vehicle id="513" depart="513.00">
        <route edges="-1005 1005 -1029 -728 -11 3 15 117 325 588"/>
    </vehicle>
    <vehicle id="514" depart="514.00">
        <route edges="-1441 1447 -1447"/>
    </vehicle>
    <vehicle id="516" depart="516.00">
        <route edges="1441 1533 1535 -876 -639 -319 -117 -15 -3 11 -11"/>
    </vehicle>
    <vehicle id="517" depart="517.00">
        <route edges="-1029 870 -679 333 -138 126 344 365"/>
    </vehicle>
    <vehicle id="526" depart="526.00">
        <route edges="-876 882 -882"/>
    </vehicle>
    <vehicle id="527" depart="527.00">
        <route edges="728 870 -679 333 -138 128 -128"/>
    </vehicle>
    <vehicle id="530" depart="530.00">
        <route edges="613 -585 -210 -25 -9 11 698 1027 1199 -1343"/>
    </vehicle>
    <vehicle id="531" depart="531.00">
        <route edges="-1343 -1093 -1029 -728 -11 3 15 117 319 639 876 -1535 -1447 1441"/>
    </vehicle>
    <vehicle id="532" depart="532.00">
        <route edges="-128 138 348 -356"/>
    </vehicle>
    <vehicle id="533" depart="533.00">
        <route edges="138 -333 679 -870 1029 1093 1343"/>
    </vehicle>
    <vehicle id="534" depart="534.00">
        <route edges="-379 -344 -125 121 326 -313 319 639 882"/>
    </vehicle>
    <vehicle id="535" depart="535.00">
        <route edges="-9 3 15 117 319 639 876 -876"/>
    </vehicle>
    <vehicle id="536" depart="536.00">
        <route edges="1342 -1011 1005 -1029 870 -679 333 -138"/>
    </vehicle>
    <vehicle id="538" depart="538.00">
        <route edges="1427 1447 -1494 1357 1415 -523 -338 -123 125 344"/>
    </vehicle>
    <vehicle id="541" depart="541.00">
        <route edges="-383 -128 -25 17 38 319 639 876 -876"/>
    </vehicle>
    <vehicle id="542" depart="542.00">
        <route edges="-612 -577 -383 -128 -25 17 38 319 639 876 -1535 -1447 -1373"/>
    </vehicle>
    <vehicle id="545" depart="545.00">
        <route edges="623 730 876 -1359 -1323"/>
    </vehicle>
    <vehicle id="546" depart="546.00">
        <route edges="381 -210 -25 17 38 319 639 876 -1535 -1447 -1373"/>
    </vehicle>
    <vehicle id="547" depart="547.00">
        <route edges="-1363 1359 -876 -639 -319 319"/>
    </vehicle>
    <vehicle id="548" depart="548.00">
        <route edges="356 -348 -138 -25 17 38 319 639 880 1357"/>
    </vehicle>
    <vehicle id="549" depart="549.00">
        <route edges="125 -125 121 326 -313 319 639 876 -1359 1363"/>
    </vehicle>
    <vehicle id="551" depart="551.00">
        <route edges="-505 523 -1415 -1357 1494 1535"/>
    </vehicle>
    <vehicle id="554" depart="554.00">
        <route edges="1323 1359 -876 880 1357 1415 -589"/>
    </vehicle>
    <vehicle id="558" depart="558.00">
        <route edges="-535 -365 -344 -125 123 336"/>
    </vehicle>
    <vehicle id="559" depart="559.00">
        <route edges="1199 -1343 -1093 -1005 -612 -577 -383 381 349 379 -492 492"/>
    </vehicle>
    <vehicle id="561" depart="561.00">
        <route edges="365 -365 -344 -125 123 338 523 -1415 -1357 1494 -1447 1447"/>
    </vehicle>
    <vehicle id="562" depart="562.00">
        <route edges="1415 -523 -338 -123 -19 -9 11 -11"/>
    </vehicle>
    <vehicle id="565" depart="565.00">
        <route edges="1533 -1494 1357 1415 -523 505 -504"/>
    </vehicle>
    <vehicle id="566" depart="566.00">
        <route edges="-492 492 -379 -349 -381 383 577 612 1011 -1011"/>
    </vehicle>
    <vehicle id="567" depart="567.00">
        <route edges="570 -125 121 326 -313 319 639 876 -1359 1373"/>
    </vehicle>
    <vehicle id="569" depart="569.00">
        <route edges="138 -138 -25 17 38 -117"/>
    </vehicle>
    <vehicle id="571" depart="571.00">
        <route edges="-613 -579"/>
    </vehicle>
    <vehicle id="572" depart="572.00">
        <route edges="-535 -365 -344 -126 210"/>
    </vehicle>
    <vehicle id="573" depart="573.00">
        <route edges="326 -313 319 639 876 -1359 1373"/>
    </vehicle>